*node, nset=nall
1, 0.,0.
2, 0.01666667,0.        
3, 0.03333333,0.        
4, 0.05,0.  
5, 0.06666667,0.        
8, 0.     ,0.00625
9, 0.01666667,0.00625   
10, 0.03333333,0.00625   
11, 0.05   ,0.00625
12, 0.06666667,0.00625   
15, 0.    ,0.0125
16, 0.01666667,0.0125    
17, 0.03333333,0.0125    
18, 0.05  ,0.0125
19, 0.06666667,0.0125    
20, 0.08333333,0.0125    
21, 0.1   ,0.0125
22, 0.     ,0.01875
23, 0.01666667,0.01875   
24, 0.03333333,0.01875   
** ... 821 like lines cut
*element,type=b32,elset=b_0
1,  1,36,37
2, 37,38,39
3, 39,40,41
4, 41,42,43
5, 43,44,45
6, 45,46,47
7, 47,48,49
8, 49,50, 2
*element,type=b32,elset=b_1
9,  1,51,52
10, 52,53,54
11, 54,55, 8
*element,type=b32,elset=b_2
12,  1,56,57
13, 57,58,59
14, 59,60,61
15, 61,62,63
16, 63,64,65
17, 65,66,67
18, 67,68,69
19, 69,70, 9
*element,type=b32,elset=b_3
20,  2,71,72
21, 72,73,74
22, 74,75,76
23, 76,77,78
24, 78,79,80
25, 80,81,82
26, 82,83,84
27, 84,85, 3
*element,type=b32,elset=b_4
28,  2,86,87
29, 87,88,89
30, 89,90, 9
*element,type=b32,elset=b_5
31,  2,91,92
32, 92,93,94
33, 94,95,96
34, 96,97,98
35,  98, 99,100
36, 100,101,102
37, 102,103,104
38, 104,105, 10
*element,type=b32,elset=b_6
39,   3,106,107
40, 107,108,109
41, 109,110,111
42, 111,112,113
43, 113,114,115
44, 115,116,117
45, 117,118,119
46, 119,120,  4
*element,type=b32,elset=b_7
47,   3,121,122
48, 122,123,124
49, 124,125, 10
*element,type=b32,elset=b_8
50,   3,126,127
51, 127,128,129
52, 129,130,131
53, 131,132,133
54, 133,134,135
55, 135,136,137
56, 137,138,139
57, 139,140, 11
*element,type=b32,elset=b_9
58,   4,141,142
59, 142,143,144
60, 144,145,146
61, 146,147,148
62, 148,149,150
63, 150,151,152
64, 152,153,154
65, 154,155,  5
*element,type=b32,elset=b_10
66,   4,156,157
67, 157,158,159
68, 159,160, 11
*element,type=b32,elset=b_11
69,   4,161,162
70, 162,163,164
71, 164,165,166
72, 166,167,168
73, 168,169,170
74, 170,171,172
75, 172,173,174
76, 174,175, 12
*element,type=b32,elset=b_13
77,   5,191,192
78, 192,193,194
79, 194,195, 12
*element,type=b32,elset=b_19
80,   8,251,252
81, 252,253,254
82, 254,255,256
83, 256,257,258
84, 258,259,260
85, 260,261,262
86, 262,263,264
87, 264,265,  9
*element,type=b32,elset=b_20
88,   8,266,267
89, 267,268,269
90, 269,270, 15
*element,type=b32,elset=b_21
91,   8,271,272
92, 272,273,274
93, 274,275,276
94, 276,277,278
95, 278,279,280
96, 280,281,282
97, 282,283,284
98, 284,285, 16
*element,type=b32,elset=b_22
99,   9,286,287
100, 287,288,289
101, 289,290,291
102, 291,292,293
103, 293,294,295
104, 295,296,297
105, 297,298,299
106, 299,300, 10
*element,type=b32,elset=b_23
107,   9,301,302
108, 302,303,304
109, 304,305, 16
*element,type=b32,elset=b_24
110,   9,306,307
111, 307,308,309
112, 309,310,311
113, 311,312,313
114, 313,314,315
115, 315,316,317
116, 317,318,319
117, 319,320, 17
*element,type=b32,elset=b_25
118,  10,321,322
119, 322,323,324
120, 324,325,326
121, 326,327,328
122, 328,329,330
123, 330,331,332
124, 332,333,334
125, 334,335, 11
*element,type=b32,elset=b_26
126,  10,336,337
127, 337,338,339
128, 339,340, 17
*element,type=b32,elset=b_27
129,  10,341,342
130, 342,343,344
131, 344,345,346
132, 346,347,348
133, 348,349,350
134, 350,351,352
135, 352,353,354
136, 354,355, 18
*element,type=b32,elset=b_28
137,  11,356,357
138, 357,358,359
139, 359,360,361
140, 361,362,363
141, 363,364,365
142, 365,366,367
143, 367,368,369
144, 369,370, 12
*element,type=b32,elset=b_29
145,  11,371,372
146, 372,373,374
147, 374,375, 18
*element,type=b32,elset=b_30
148,  11,376,377
149, 377,378,379
150, 379,380,381
151, 381,382,383
152, 383,384,385
153, 385,386,387
154, 387,388,389
155, 389,390, 19
*element,type=b32,elset=b_32
156,  12,406,407
157, 407,408,409
158, 409,410, 19
*element,type=b32,elset=b_38
159,  15,466,467
160, 467,468,469
161, 469,470,471
162, 471,472,473
163, 473,474,475
164, 475,476,477
165, 477,478,479
166, 479,480, 16
*element,type=b32,elset=b_39
167,  15,481,482
168, 482,483,484
169, 484,485, 22
*element,type=b32,elset=b_40
170,  15,486,487
171, 487,488,489
172, 489,490,491
173, 491,492,493
174, 493,494,495
175, 495,496,497
176, 497,498,499
177, 499,500, 23
*element,type=b32,elset=b_41
178,  16,501,502
179, 502,503,504
180, 504,505,506
181, 506,507,508
182, 508,509,510
183, 510,511,512
184, 512,513,514
185, 514,515, 17
*element,type=b32,elset=b_42
186,  16,516,517
187, 517,518,519
188, 519,520, 23
*element,type=b32,elset=b_43
189,  16,521,522
190, 522,523,524
191, 524,525,526
192, 526,527,528
193, 528,529,530
194, 530,531,532
195, 532,533,534
196, 534,535, 24
*element,type=b32,elset=b_44
197,  17,536,537
198, 537,538,539
199, 539,540,541
200, 541,542,543
201, 543,544,545
202, 545,546,547
203, 547,548,549
204, 549,550, 18
*element,type=b32,elset=b_45
205,  17,551,552
206, 552,553,554
207, 554,555, 24
*element,type=b32,elset=b_46
208,  17,556,557
209, 557,558,559
210, 559,560,561
211, 561,562,563
212, 563,564,565
213, 565,566,567
214, 567,568,569
215, 569,570, 25
*element,type=b32,elset=b_47
216,  18,571,572
217, 572,573,574
218, 574,575,576
219, 576,577,578
220, 578,579,580
221, 580,581,582
222, 582,583,584
223, 584,585, 19
*element,type=b32,elset=b_48
224,  18,586,587
225, 587,588,589
226, 589,590, 25
*element,type=b32,elset=b_49
227,  18,591,592
228, 592,593,594
229, 594,595,596
230, 596,597,598
231, 598,599,600
232, 600,601,602
233, 602,603,604
234, 604,605, 26
*element,type=b32,elset=b_50
235,  19,606,607
236, 607,608,609
237, 609,610,611
238, 611,612,613
239, 613,614,615
240, 615,616,617
241, 617,618,619
242, 619,620, 20
*element,type=b32,elset=b_51
243,  19,621,622
244, 622,623,624
245, 624,625, 26
*element,type=b32,elset=b_52
246,  19,626,627
247, 627,628,629
248, 629,630,631
249, 631,632,633
250, 633,634,635
251, 635,636,637
252, 637,638,639
253, 639,640, 27
*element,type=b32,elset=b_53
254,  20,641,642
255, 642,643,644
256, 644,645,646
257, 646,647,648
258, 648,649,650
259, 650,651,652
260, 652,653,654
261, 654,655, 21
*element,type=b32,elset=b_54
262,  20,656,657
263, 657,658,659
264, 659,660, 27
*element,type=b32,elset=b_55
265,  20,661,662
266, 662,663,664
267, 664,665,666
268, 666,667,668
269, 668,669,670
270, 670,671,672
271, 672,673,674
272, 674,675, 28
*element,type=b32,elset=b_56
273,  21,676,677
274, 677,678,679
275, 679,680, 28
*element,type=b32,elset=b_57
276,  22,681,682
277, 682,683,684
278, 684,685,686
279, 686,687,688
280, 688,689,690
281, 690,691,692
282, 692,693,694
283, 694,695, 23
*element,type=b32,elset=b_58
284,  22,696,697
285, 697,698,699
286, 699,700, 29
*element,type=b32,elset=b_59
287,  22,701,702
288, 702,703,704
289, 704,705,706
290, 706,707,708
291, 708,709,710
292, 710,711,712
293, 712,713,714
294, 714,715, 30
*element,type=b32,elset=b_60
295,  23,716,717
296, 717,718,719
297, 719,720,721
298, 721,722,723
299, 723,724,725
300, 725,726,727
301, 727,728,729
302, 729,730, 24
*element,type=b32,elset=b_61
303,  23,731,732
304, 732,733,734
305, 734,735, 30
*element,type=b32,elset=b_62
306,  23,736,737
307, 737,738,739
308, 739,740,741
309, 741,742,743
310, 743,744,745
311, 745,746,747
312, 747,748,749
313, 749,750, 31
*element,type=b32,elset=b_63
314,  24,751,752
315, 752,753,754
316, 754,755,756
317, 756,757,758
318, 758,759,760
319, 760,761,762
320, 762,763,764
321, 764,765, 25
*element,type=b32,elset=b_64
322,  24,766,767
323, 767,768,769
324, 769,770, 31
*element,type=b32,elset=b_65
325,  24,771,772
326, 772,773,774
327, 774,775,776
328, 776,777,778
329, 778,779,780
330, 780,781,782
331, 782,783,784
332, 784,785, 32
*element,type=b32,elset=b_66
333,  25,786,787
334, 787,788,789
335, 789,790,791
336, 791,792,793
337, 793,794,795
338, 795,796,797
339, 797,798,799
340, 799,800, 26
*element,type=b32,elset=b_67
341,  25,801,802
342, 802,803,804
343, 804,805, 32
*element,type=b32,elset=b_68
344,  25,806,807
345, 807,808,809
346, 809,810,811
347, 811,812,813
348, 813,814,815
349, 815,816,817
350, 817,818,819
351, 819,820, 33
*element,type=b32,elset=b_69
352,  26,821,822
353, 822,823,824
354, 824,825,826
355, 826,827,828
356, 828,829,830
357, 830,831,832
358, 832,833,834
359, 834,835, 27
*element,type=b32,elset=b_70
360,  26,836,837
361, 837,838,839
362, 839,840, 33
*element,type=b32,elset=b_71
363,  26,841,842
364, 842,843,844
365, 844,845,846
366, 846,847,848
367, 848,849,850
368, 850,851,852
369, 852,853,854
370, 854,855, 34
*element,type=b32,elset=b_72
371,  27,856,857
372, 857,858,859
373, 859,860,861
374, 861,862,863
375, 863,864,865
376, 865,866,867
377, 867,868,869
378, 869,870, 28
*element,type=b32,elset=b_73
379,  27,871,872
380, 872,873,874
381, 874,875, 34
*element,type=b32,elset=b_74
382,  27,876,877
383, 877,878,879
384, 879,880,881
385, 881,882,883
386, 883,884,885
387, 885,886,887
388, 887,888,889
389, 889,890, 35
*element,type=b32,elset=b_75
390,  28,891,892
391, 892,893,894
392, 894,895, 35
*element,type=b32,elset=b_76
393,  29,896,897
394, 897,898,899
395, 899,900,901
396, 901,902,903
397, 903,904,905
398, 905,906,907
399, 907,908,909
400, 909,910, 30
*element,type=b32,elset=b_77
401,  30,911,912
402, 912,913,914
403, 914,915,916
404, 916,917,918
405, 918,919,920
406, 920,921,922
407, 922,923,924
408, 924,925, 31
*element,type=b32,elset=b_78
409,  31,926,927
410, 927,928,929
411, 929,930,931
412, 931,932,933
413, 933,934,935
414, 935,936,937
415, 937,938,939
416, 939,940, 32
*element,type=b32,elset=b_79
417,  32,941,942
418, 942,943,944
419, 944,945,946
420, 946,947,948
421, 948,949,950
422, 950,951,952
423, 952,953,954
424, 954,955, 33
*element,type=b32,elset=b_80
425,  33,956,957
426, 957,958,959
427, 959,960,961
428, 961,962,963
429, 963,964,965
430, 965,966,967
431, 967,968,969
432, 969,970, 34
*element,type=b32,elset=b_81
433,  34,971,972
434, 972,973,974
435, 974,975,976
436, 976,977,978
437, 978,979,980
438, 980,981,982
439, 982,983,984
440, 984,985, 35
*elset, elset=elall
b_0,
b_1,
b_2,
b_3,
b_4,
b_5,
b_6,
b_7,
b_8,
b_9,
b_10,
b_11,
b_13,
b_19,
b_20,
b_21,
b_22,
b_23,
b_24,
b_25,
** ... 50 like lines cut
*material, name=mesh_material
*elastic, type=iso
2980000000.0, 0.2
*beam section, elset=b_0, material=mesh_material, section=rect
0.008, 0.00130000000000000016
0.d0,0.d0,1.d0
*beam section, elset=b_1, material=mesh_material, section=rect
0.008, 0.00370000000000000016
0.d0,0.d0,1.d0
*beam section, elset=b_2, material=mesh_material, section=rect
0.008, 0.00130000000000000016
0.d0,0.d0,1.d0
*beam section, elset=b_3, material=mesh_material, section=rect
0.008, 0.00130000000000000016
0.d0,0.d0,1.d0
*beam section, elset=b_4, material=mesh_material, section=rect
0.008, 0.00130000000000000016
0.d0,0.d0,1.d0
*beam section, elset=b_5, material=mesh_material, section=rect
0.008, 0.00130000000000000016
0.d0,0.d0,1.d0
*beam section, elset=b_6, material=mesh_material, section=rect
0.008, 0.00130000000000000016
0.d0,0.d0,1.d0
*beam section, elset=b_7, material=mesh_material, section=rect
0.008, 0.00130000000000000016
0.d0,0.d0,1.d0
*beam section, elset=b_8, material=mesh_material, section=rect
0.008, 0.00130000000000000016
0.d0,0.d0,1.d0
*beam section, elset=b_9, material=mesh_material, section=rect
0.008, 0.00130000000000000016
0.d0,0.d0,1.d0
*beam section, elset=b_10, material=mesh_material, section=rect
0.008, 0.00130000000000000016
0.d0,0.d0,1.d0
*beam section, elset=b_11, material=mesh_material, section=rect
0.008, 0.00130000000000000016
0.d0,0.d0,1.d0
*beam section, elset=b_13, material=mesh_material, section=rect
0.008, 0.00370000000000000016
0.d0,0.d0,1.d0
*beam section, elset=b_19, material=mesh_material, section=rect
0.008, 0.00130000000000000016
0.d0,0.d0,1.d0
*beam section, elset=b_20, material=mesh_material, section=rect
0.008, 0.00130000000000000016
0.d0,0.d0,1.d0
*beam section, elset=b_21, material=mesh_material, section=rect
0.008, 0.00130000000000000016
0.d0,0.d0,1.d0
*beam section, elset=b_22, material=mesh_material, section=rect
0.008, 0.00130000000000000016
0.d0,0.d0,1.d0
*beam section, elset=b_23, material=mesh_material, section=rect
0.008, 0.00370000000000000016
0.d0,0.d0,1.d0
*beam section, elset=b_24, material=mesh_material, section=rect
0.008, 0.00130000000000000016
0.d0,0.d0,1.d0
*beam section, elset=b_25, material=mesh_material, section=rect
0.008, 0.00130000000000000016
0.d0,0.d0,1.d0
** ... 150 like lines cut
*boundary
1, 3,5
2, 3,5
3, 3,5
4, 3,5
5, 3,5
8, 3,5
9, 3,5
10, 3,5
11, 3,5
12, 3,5
15, 3,5
16, 3,5
17, 3,5
18, 3,5
19, 3,5
20, 3,5
21, 3,5
22, 3,5
23, 3,5
24, 3,5
** ... 821 like lines cut
*boundary
2, 2
2, 6
3, 2
3, 6
4, 2
4, 6
5, 2
5, 6
1, 2
1, 6
29, 1
29, 2
32, 1
32, 2
*step, nlgeom
*static
*cload
1, 1, 100.0
20, 2, 5.0
21, 2, 5.0
*el print, elset=elall
s
*node file, output=2d, nset=nall
u
*el file, elset=elall
s,noe
*end step