*node, nset=nall
1, 0.,0.
2, 0.00833333,0.        
3, 0.01666667,0.        
4, 0.025,0.   
5, 0.03333333,0.        
6, 0.04166667,0.        
7, 0.05,0.  
8, 0.05833333,0.        
9, 0.06666667,0.        
14, 0.     ,0.00625
15, 0.00833333,0.00625   
16, 0.01666667,0.00625   
17, 0.025  ,0.00625
18, 0.03333333,0.00625   
19, 0.04166667,0.00625   
20, 0.05   ,0.00625
21, 0.05833333,0.00625   
22, 0.06666667,0.00625   
27, 0.    ,0.0125
28, 0.00833333,0.0125    
** ... 721 like lines cut
*element,type=b32,elset=b_1
1,  1,66,67
2, 67,68,69
3, 69,70,71
4, 71,72, 2
*element,type=b32,elset=b_2
5,  1,73,74
6, 74,75,76
7, 76,77,14
*element,type=b32,elset=b_3
8,  1,78,79
9, 79,80,81
10, 81,82,83
11, 83,84,85
12, 85,86,15
*element,type=b32,elset=b_4
13,  2,87,88
14, 88,89,90
15, 90,91,92
16, 92,93, 3
*element,type=b32,elset=b_5
17,  2,94,95
18, 95,96,97
19, 97,98,15
*element,type=b32,elset=b_6
20,   2, 99,100
21, 100,101,102
22, 102,103,104
23, 104,105,106
24, 106,107, 16
*element,type=b32,elset=b_7
25,   3,108,109
26, 109,110,111
27, 111,112,113
28, 113,114,  4
*element,type=b32,elset=b_8
29,   3,115,116
30, 116,117,118
31, 118,119, 16
*element,type=b32,elset=b_9
32,   3,120,121
33, 121,122,123
34, 123,124,125
35, 125,126,127
36, 127,128, 17
*element,type=b32,elset=b_10
37,   4,129,130
38, 130,131,132
39, 132,133,134
40, 134,135,  5
*element,type=b32,elset=b_11
41,   4,136,137
42, 137,138,139
43, 139,140, 17
*element,type=b32,elset=b_12
44,   4,141,142
45, 142,143,144
46, 144,145,146
47, 146,147,148
48, 148,149, 18
*element,type=b32,elset=b_13
49,   5,150,151
50, 151,152,153
51, 153,154,155
52, 155,156,  6
*element,type=b32,elset=b_14
53,   5,157,158
54, 158,159,160
55, 160,161, 18
*element,type=b32,elset=b_15
56,   5,162,163
57, 163,164,165
58, 165,166,167
59, 167,168,169
60, 169,170, 19
*element,type=b32,elset=b_16
61,   6,171,172
62, 172,173,174
63, 174,175,176
64, 176,177,  7
*element,type=b32,elset=b_17
65,   6,178,179
66, 179,180,181
67, 181,182, 19
*element,type=b32,elset=b_18
68,   6,183,184
69, 184,185,186
70, 186,187,188
71, 188,189,190
72, 190,191, 20
*element,type=b32,elset=b_19
73,   7,192,193
74, 193,194,195
75, 195,196,197
76, 197,198,  8
*element,type=b32,elset=b_20
77,   7,204,205
78, 205,206,207
79, 207,208,209
80, 209,210,211
81, 211,212, 21
*element,type=b32,elset=b_21
82,   8,220,221
83, 221,222,223
84, 223,224, 21
*element,type=b32,elset=b_22
85,   8,225,226
86, 226,227,228
87, 228,229,230
88, 230,231,232
89, 232,233, 22
*element,type=b32,elset=b_23
90,   9,241,242
91, 242,243,244
92, 244,245, 22
*element,type=b32,elset=b_24
93,  14,323,324
94, 324,325,326
95, 326,327,328
96, 328,329, 15
*element,type=b32,elset=b_25
97,  14,330,331
98, 331,332,333
99, 333,334, 27
*element,type=b32,elset=b_26
100,  14,335,336
101, 336,337,338
102, 338,339,340
103, 340,341,342
104, 342,343, 28
*element,type=b32,elset=b_27
105,  15,344,345
106, 345,346,347
107, 347,348,349
108, 349,350, 16
*element,type=b32,elset=b_28
109,  15,351,352
110, 352,353,354
111, 354,355, 28
*element,type=b32,elset=b_29
112,  15,356,357
113, 357,358,359
114, 359,360,361
115, 361,362,363
116, 363,364, 29
*element,type=b32,elset=b_30
117,  16,365,366
118, 366,367,368
119, 368,369,370
120, 370,371, 17
*element,type=b32,elset=b_31
121,  16,372,373
122, 373,374,375
123, 375,376, 29
*element,type=b32,elset=b_32
124,  17,386,387
125, 387,388,389
126, 389,390,391
127, 391,392, 18
*element,type=b32,elset=b_33
128,  17,393,394
129, 394,395,396
130, 396,397, 30
*element,type=b32,elset=b_34
131,  18,407,408
132, 408,409,410
133, 410,411,412
134, 412,413, 19
*element,type=b32,elset=b_35
135,  19,428,429
136, 429,430,431
137, 431,432,433
138, 433,434, 20
*element,type=b32,elset=b_36
139,  19,435,436
140, 436,437,438
141, 438,439, 32
*element,type=b32,elset=b_37
142,  19,440,441
143, 441,442,443
144, 443,444,445
145, 445,446,447
146, 447,448, 33
*element,type=b32,elset=b_38
147,  20,449,450
148, 450,451,452
149, 452,453,454
150, 454,455, 21
*element,type=b32,elset=b_39
151,  21,477,478
152, 478,479,480
153, 480,481, 34
*element,type=b32,elset=b_40
154,  21,482,483
155, 483,484,485
156, 485,486,487
157, 487,488,489
158, 489,490, 35
*element,type=b32,elset=b_41
159,  22,498,499
160, 499,500,501
161, 501,502, 35
*element,type=b32,elset=b_42
162,  27,587,588
163, 588,589,590
164, 590,591, 40
*element,type=b32,elset=b_43
165,  28,601,602
166, 602,603,604
167, 604,605,606
168, 606,607, 29
*element,type=b32,elset=b_44
169,  28,608,609
170, 609,610,611
171, 611,612, 41
*element,type=b32,elset=b_45
172,  28,613,614
173, 614,615,616
174, 616,617,618
175, 618,619,620
176, 620,621, 42
*element,type=b32,elset=b_46
177,  29,629,630
178, 630,631,632
179, 632,633, 42
*element,type=b32,elset=b_47
180,  29,634,635
181, 635,636,637
182, 637,638,639
183, 639,640,641
184, 641,642, 43
*element,type=b32,elset=b_48
185,  30,643,644
186, 644,645,646
187, 646,647,648
188, 648,649, 31
*element,type=b32,elset=b_49
189,  30,650,651
190, 651,652,653
191, 653,654, 43
*element,type=b32,elset=b_50
192,  31,664,665
193, 665,666,667
194, 667,668,669
195, 669,670, 32
*element,type=b32,elset=b_51
196,  31,671,672
197, 672,673,674
198, 674,675, 44
*element,type=b32,elset=b_52
199,  32,685,686
200, 686,687,688
201, 688,689,690
202, 690,691, 33
*element,type=b32,elset=b_53
203,  32,692,693
204, 693,694,695
205, 695,696, 45
*element,type=b32,elset=b_54
206,  32,697,698
207, 698,699,700
208, 700,701,702
209, 702,703,704
210, 704,705, 46
*element,type=b32,elset=b_55
211,  33,706,707
212, 707,708,709
213, 709,710,711
214, 711,712, 34
*element,type=b32,elset=b_56
215,  34,727,728
216, 728,729,730
217, 730,731,732
218, 732,733, 35
*element,type=b32,elset=b_57
219,  35,748,749
220, 749,750,751
221, 751,752,753
222, 753,754, 36
*element,type=b32,elset=b_58
223,  35,755,756
224, 756,757,758
225, 758,759, 48
*element,type=b32,elset=b_59
226,  35,760,761
227, 761,762,763
228, 763,764,765
229, 765,766,767
230, 767,768, 49
*element,type=b32,elset=b_60
231,  36,769,770
232, 770,771,772
233, 772,773,774
234, 774,775, 37
*element,type=b32,elset=b_61
235,  36,776,777
236, 777,778,779
237, 779,780, 49
*element,type=b32,elset=b_62
238,  36,781,782
239, 782,783,784
240, 784,785,786
241, 786,787,788
242, 788,789, 50
*element,type=b32,elset=b_63
243,  37,790,791
244, 791,792,793
245, 793,794,795
246, 795,796, 38
*element,type=b32,elset=b_64
247,  37,797,798
248, 798,799,800
249, 800,801, 50
*element,type=b32,elset=b_65
250,  37,802,803
251, 803,804,805
252, 805,806,807
253, 807,808,809
254, 809,810, 51
*element,type=b32,elset=b_66
255,  38,818,819
256, 819,820,821
257, 821,822, 51
*element,type=b32,elset=b_67
258,  38,823,824
259, 824,825,826
260, 826,827,828
261, 828,829,830
262, 830,831, 52
*element,type=b32,elset=b_68
263,  39,832,833
264, 833,834,835
265, 835,836, 52
*element,type=b32,elset=b_69
266,  40,837,838
267, 838,839,840
268, 840,841,842
269, 842,843, 41
*element,type=b32,elset=b_70
270,  40,849,850
271, 850,851,852
272, 852,853,854
273, 854,855,856
274, 856,857, 54
*element,type=b32,elset=b_71
275,  41,858,859
276, 859,860,861
277, 861,862,863
278, 863,864, 42
*element,type=b32,elset=b_72
279,  42,879,880
280, 880,881,882
281, 882,883,884
282, 884,885, 43
*element,type=b32,elset=b_73
283,  42,886,887
284, 887,888,889
285, 889,890, 55
*element,type=b32,elset=b_74
286,  42,891,892
287, 892,893,894
288, 894,895,896
289, 896,897,898
290, 898,899, 56
*element,type=b32,elset=b_75
291,  43,900,901
292, 901,902,903
293, 903,904,905
294, 905,906, 44
*element,type=b32,elset=b_76
295,  43,907,908
296, 908,909,910
297, 910,911, 56
*element,type=b32,elset=b_77
298,  43,912,913
299, 913,914,915
300, 915,916,917
301, 917,918,919
302, 919,920, 57
*element,type=b32,elset=b_78
303,  44,928,929
304, 929,930,931
305, 931,932, 57
*element,type=b32,elset=b_79
306,  45,949,950
307, 950,951,952
308, 952,953, 58
*element,type=b32,elset=b_80
309,  46,975,976
310, 976,977,978
311, 978,979,980
312, 980,981,982
313, 982,983, 60
*element,type=b32,elset=b_81
314,   48,1005,1006
315, 1006,1007,1008
316, 1008,1009,1010
317, 1010,1011,  49
*element,type=b32,elset=b_82
318,   48,1017,1018
319, 1018,1019,1020
320, 1020,1021,1022
321, 1022,1023,1024
322, 1024,1025,  62
*element,type=b32,elset=b_83
323,   49,1026,1027
324, 1027,1028,1029
325, 1029,1030,1031
326, 1031,1032,  50
*element,type=b32,elset=b_84
327,   49,1033,1034
328, 1034,1035,1036
329, 1036,1037,  62
*element,type=b32,elset=b_85
330,   49,1038,1039
331, 1039,1040,1041
332, 1041,1042,1043
333, 1043,1044,1045
334, 1045,1046,  63
*element,type=b32,elset=b_86
335,   50,1047,1048
336, 1048,1049,1050
337, 1050,1051,1052
338, 1052,1053,  51
*element,type=b32,elset=b_87
339,   50,1054,1055
340, 1055,1056,1057
341, 1057,1058,  63
*element,type=b32,elset=b_88
342,   50,1059,1060
343, 1060,1061,1062
344, 1062,1063,1064
345, 1064,1065,1066
346, 1066,1067,  64
*element,type=b32,elset=b_89
347,   51,1068,1069
348, 1069,1070,1071
349, 1071,1072,1073
350, 1073,1074,  52
*element,type=b32,elset=b_90
351,   51,1075,1076
352, 1076,1077,1078
353, 1078,1079,  64
*element,type=b32,elset=b_91
354,   51,1080,1081
355, 1081,1082,1083
356, 1083,1084,1085
357, 1085,1086,1087
358, 1087,1088,  65
*element,type=b32,elset=b_92
359,   52,1089,1090
360, 1090,1091,1092
361, 1092,1093,  65
*element,type=b32,elset=b_93
362,   54,1101,1102
363, 1102,1103,1104
364, 1104,1105,1106
365, 1106,1107,  55
*element,type=b32,elset=b_94
366,   58,1129,1130
367, 1130,1131,1132
368, 1132,1133,1134
369, 1134,1135,  59
*element,type=b32,elset=b_95
370,   59,1136,1137
371, 1137,1138,1139
372, 1139,1140,1141
373, 1141,1142,  60
*element,type=b32,elset=b_96
374,   60,1143,1144
375, 1144,1145,1146
376, 1146,1147,1148
377, 1148,1149,  61
*element,type=b32,elset=b_97
378,   61,1150,1151
379, 1151,1152,1153
380, 1153,1154,1155
381, 1155,1156,  62
*element,type=b32,elset=b_98
382,   62,1157,1158
383, 1158,1159,1160
384, 1160,1161,1162
385, 1162,1163,  63
*element,type=b32,elset=b_99
386,   63,1164,1165
387, 1165,1166,1167
388, 1167,1168,1169
389, 1169,1170,  64
*element,type=b32,elset=b_100
390,   64,1171,1172
391, 1172,1173,1174
392, 1174,1175,1176
393, 1176,1177,  65
*elset, elset=elall
b_1,
b_2,
b_3,
b_4,
b_5,
b_6,
b_7,
b_8,
b_9,
b_10,
b_11,
b_12,
b_13,
b_14,
b_15,
b_16,
b_17,
b_18,
b_19,
b_20,
** ... 80 like lines cut
*material, name=mesh_material
*elastic, type=iso
2980000000.0, 0.2
*beam section, elset=b_1,material=mesh_material, section=rect
0.008, 0.0014
0.d0,0.d0,1.d0
*beam section, elset=b_2,material=mesh_material, section=rect
0.008, 5e-05
0.d0,0.d0,1.d0
*beam section, elset=b_3,material=mesh_material, section=rect
0.008, 0.00015
0.d0,0.d0,1.d0
*beam section, elset=b_4,material=mesh_material, section=rect
0.008, 0.00115
0.d0,0.d0,1.d0
*beam section, elset=b_5,material=mesh_material, section=rect
0.008, 5e-05
0.d0,0.d0,1.d0
*beam section, elset=b_6,material=mesh_material, section=rect
0.008, 0.00035
0.d0,0.d0,1.d0
*beam section, elset=b_7,material=mesh_material, section=rect
0.008, 0.0043
0.d0,0.d0,1.d0
*beam section, elset=b_8,material=mesh_material, section=rect
0.008, 0.00035
0.d0,0.d0,1.d0
*beam section, elset=b_9,material=mesh_material, section=rect
0.008, 0.00015
0.d0,0.d0,1.d0
*beam section, elset=b_10,material=mesh_material, section=rect
0.008, 0.0042
0.d0,0.d0,1.d0
*beam section, elset=b_11,material=mesh_material, section=rect
0.008, 5e-05
0.d0,0.d0,1.d0
*beam section, elset=b_12,material=mesh_material, section=rect
0.008, 0.00025
0.d0,0.d0,1.d0
*beam section, elset=b_13,material=mesh_material, section=rect
0.008, 0.00395
0.d0,0.d0,1.d0
*beam section, elset=b_14,material=mesh_material, section=rect
0.008, 0.00015
0.d0,0.d0,1.d0
*beam section, elset=b_15,material=mesh_material, section=rect
0.008, 0.00125
0.d0,0.d0,1.d0
*beam section, elset=b_16,material=mesh_material, section=rect
0.008, 0.00185
0.d0,0.d0,1.d0
*beam section, elset=b_17,material=mesh_material, section=rect
0.008, 0.00135
0.d0,0.d0,1.d0
*beam section, elset=b_18,material=mesh_material, section=rect
0.008, 0.00125
0.d0,0.d0,1.d0
*beam section, elset=b_19,material=mesh_material, section=rect
0.008, 0.0008
0.d0,0.d0,1.d0
*beam section, elset=b_20,material=mesh_material, section=rect
0.008, 0.00095
0.d0,0.d0,1.d0
** ... 240 like lines cut
*boundary
1, 3,5
2, 3,5
3, 3,5
4, 3,5
5, 3,5
6, 3,5
7, 3,5
8, 3,5
9, 3,5
14, 3,5
15, 3,5
16, 3,5
17, 3,5
18, 3,5
19, 3,5
20, 3,5
21, 3,5
22, 3,5
27, 3,5
28, 3,5
** ... 721 like lines cut
*boundary
2, 2
2, 6
3, 2
3, 6
4, 2
4, 6
5, 2
5, 6
6, 2
6, 6
7, 2
7, 6
8, 2
8, 6
9, 2
9, 6
1, 2
1, 6
53, 1
53, 2
59, 1
59, 2
*step, nlgeom
*static
*cload
1, 1, -100.0
36, 2, 5.0
37, 2, 5.0
38, 2, 5.0
39, 2, 5.0
*el print, elset=elall
s
*node file, output=2d, nset=nall
u
*el file, elset=elall
s,noe
*end step