SUMMARY OF JOB INFORMATION
  STEP      INC     ATT  ITRS     TOT TIME     STEP TIME      INC TIME
     1          1     1U    5  0.000000E+00  0.000000E+00  0.100000E+01
     1          1     2     3  0.250000E+00  0.250000E+00  0.250000E+00
     1          2     1U    4  0.250000E+00  0.250000E+00  0.250000E+00
     1          2     2     2  0.312500E+00  0.312500E+00  0.625000E-01
     1          3     1     2  0.375000E+00  0.375000E+00  0.625000E-01
     1          4     1     4  0.468750E+00  0.468750E+00  0.937500E-01
     1          5     1U    5  0.468750E+00  0.468750E+00  0.140625E+00
     1          5     2     5  0.503906E+00  0.503906E+00  0.351562E-01
     1          6     1     4  0.539062E+00  0.539062E+00  0.351562E-01
     1          7     1    10  0.574219E+00  0.574219E+00  0.351562E-01
     1          8     1     6  0.609375E+00  0.609375E+00  0.351562E-01
     1          9     1     8  0.644531E+00  0.644531E+00  0.351562E-01
     1         10     1U    5  0.644531E+00  0.644531E+00  0.351562E-01
     1         10     2     8  0.653320E+00  0.653320E+00  0.878906E-02
     1         11     1     7  0.662109E+00  0.662109E+00  0.878906E-02
     1         12     1U    6  0.662109E+00  0.662109E+00  0.878906E-02
     1         12     2U    5  0.662109E+00  0.662109E+00  0.219727E-02
     1         12     3     5  0.662659E+00  0.662659E+00  0.549316E-03
     1         13     1U    7  0.662659E+00  0.662659E+00  0.549316E-03
     1         13     2     3  0.662796E+00  0.662796E+00  0.137329E-03
     1         14     1     3  0.662933E+00  0.662933E+00  0.137329E-03
     1         15     1U    9  0.662933E+00  0.662933E+00  0.205994E-03
     1         15     2     3  0.663036E+00  0.663036E+00  0.102997E-03
     1         16     1     4  0.663139E+00  0.663139E+00  0.102997E-03
     1         17     1U    5  0.663139E+00  0.663139E+00  0.154495E-03
     1         17     2U    5  0.663139E+00  0.663139E+00  0.386238E-04
