SUMMARY OF JOB INFORMATION
  STEP      INC     ATT  ITRS     TOT TIME     STEP TIME      INC TIME
     1          1     1U    5  0.000000E+00  0.000000E+00  0.100000E+01
     1          1     2U    5  0.000000E+00  0.000000E+00  0.250000E+00
     1          1     3     2  0.625000E-01  0.625000E-01  0.625000E-01
     1          2     1     2  0.125000E+00  0.125000E+00  0.625000E-01
     1          3     1     2  0.218750E+00  0.218750E+00  0.937500E-01
     1          4     1     4  0.359375E+00  0.359375E+00  0.140625E+00
     1          5     1U    9  0.359375E+00  0.359375E+00  0.210938E+00
     1          5     2     3  0.412109E+00  0.412109E+00  0.527344E-01
     1          6     1U    4  0.412109E+00  0.412109E+00  0.527344E-01
     1          6     2     2  0.425293E+00  0.425293E+00  0.131836E-01
     1          7     1     2  0.438477E+00  0.438477E+00  0.131836E-01
     1          8     1     3  0.458252E+00  0.458252E+00  0.197754E-01
     1          9     1     3  0.487915E+00  0.487915E+00  0.296631E-01
     1         10     1     6  0.532410E+00  0.532410E+00  0.444946E-01
     1         11     1     3  0.576904E+00  0.576904E+00  0.444946E-01
     1         12     1     4  0.621399E+00  0.621399E+00  0.444946E-01
     1         13     1     3  0.688141E+00  0.688141E+00  0.667419E-01
     1         14     1U    4  0.688141E+00  0.688141E+00  0.100113E+00
     1         14     2     2  0.713169E+00  0.713169E+00  0.250282E-01
     1         15     1     2  0.738197E+00  0.738197E+00  0.250282E-01
     1         16     1     3  0.775740E+00  0.775740E+00  0.375423E-01
     1         17     1     3  0.832053E+00  0.832053E+00  0.563135E-01
     1         18     1U    4  0.832053E+00  0.832053E+00  0.844703E-01
     1         18     2     2  0.853171E+00  0.853171E+00  0.211176E-01
     1         19     1     2  0.874288E+00  0.874288E+00  0.211176E-01
     1         20     1     2  0.905965E+00  0.905965E+00  0.316764E-01
     1         21     1     3  0.953479E+00  0.953479E+00  0.475145E-01
     1         22     1     3  0.100000E+01  0.100000E+01  0.465208E-01
