SUMMARY OF JOB INFORMATION
  STEP      INC     ATT  ITRS     TOT TIME     STEP TIME      INC TIME
     1          1     1U    7  0.000000E+00  0.000000E+00  0.100000E+01
     1          1     2     3  0.250000E+00  0.250000E+00  0.250000E+00
     1          2     1U    4  0.250000E+00  0.250000E+00  0.250000E+00
     1          2     2     2  0.312500E+00  0.312500E+00  0.625000E-01
     1          3     1     2  0.375000E+00  0.375000E+00  0.625000E-01
     1          4     1     4  0.468750E+00  0.468750E+00  0.937500E-01
     1          5     1U    5  0.468750E+00  0.468750E+00  0.140625E+00
     1          5     2     5  0.503906E+00  0.503906E+00  0.351562E-01
     1          6     1     4  0.539062E+00  0.539062E+00  0.351562E-01
     1          7     1     9  0.574219E+00  0.574219E+00  0.351562E-01
     1          8     1     9  0.609375E+00  0.609375E+00  0.351562E-01
     1          9     1U    5  0.609375E+00  0.609375E+00  0.351562E-01
     1          9     2     5  0.618164E+00  0.618164E+00  0.878906E-02
     1         10     1     3  0.626953E+00  0.626953E+00  0.878906E-02
     1         11     1     3  0.635742E+00  0.635742E+00  0.878906E-02
     1         12     1U    8  0.635742E+00  0.635742E+00  0.131836E-01
     1         12     2U    5  0.635742E+00  0.635742E+00  0.329590E-02
     1         12     3     3  0.636566E+00  0.636566E+00  0.823975E-03
     1         13     1     3  0.637390E+00  0.637390E+00  0.823975E-03
     1         14     1     4  0.638626E+00  0.638626E+00  0.123596E-02
     1         15     1U    5  0.638626E+00  0.638626E+00  0.185394E-02
     1         15     2U    7  0.638626E+00  0.638626E+00  0.463486E-03
     1         15     3     3  0.638742E+00  0.638742E+00  0.115871E-03
     1         16     1U    5  0.638742E+00  0.638742E+00  0.115871E-03
     1         16     2     3  0.638771E+00  0.638771E+00  0.289679E-04
     1         17     1U    8  0.638771E+00  0.638771E+00  0.289679E-04
     1         17     2     3  0.638785E+00  0.638785E+00  0.144839E-04
     1         18     1U    9  0.638785E+00  0.638785E+00  0.144839E-04
