SUMMARY OF JOB INFORMATION
  STEP      INC     ATT  ITRS     TOT TIME     STEP TIME      INC TIME
     1          1     1U    8  0.000000E+00  0.000000E+00  0.100000E+01
     1          1     2U    5  0.000000E+00  0.000000E+00  0.500000E+00
     1          1     3     2  0.125000E+00  0.125000E+00  0.125000E+00
     1          2     1     2  0.250000E+00  0.250000E+00  0.125000E+00
     1          3     1     3  0.437500E+00  0.437500E+00  0.187500E+00
     1          4     1U    6  0.437500E+00  0.437500E+00  0.281250E+00
     1          4     2U    4  0.437500E+00  0.437500E+00  0.703125E-01
     1          4     3     2  0.455078E+00  0.455078E+00  0.175781E-01
     1          5     1     4  0.472656E+00  0.472656E+00  0.175781E-01
     1          6     1     3  0.499023E+00  0.499023E+00  0.263672E-01
     1          7     1     4  0.538574E+00  0.538574E+00  0.395508E-01
     1          8     1U    9  0.538574E+00  0.538574E+00  0.593262E-01
     1          8     2     6  0.553406E+00  0.553406E+00  0.148315E-01
     1          9     1    10  0.568237E+00  0.568237E+00  0.148315E-01
     1         10     1     5  0.583069E+00  0.583069E+00  0.148315E-01
     1         11     1     5  0.597900E+00  0.597900E+00  0.148315E-01
     1         12     1     4  0.612732E+00  0.612732E+00  0.148315E-01
     1         13     1     4  0.627563E+00  0.627563E+00  0.148315E-01
     1         14     1     9  0.649811E+00  0.649811E+00  0.222473E-01
     1         15     1U    5  0.649811E+00  0.649811E+00  0.222473E-01
     1         15     2U   11  0.649811E+00  0.649811E+00  0.556183E-02
     1         15     3     7  0.652592E+00  0.652592E+00  0.278091E-02
     1         16     1U    6  0.652592E+00  0.652592E+00  0.278091E-02
     1         16     2     4  0.653287E+00  0.653287E+00  0.695229E-03
     1         17     1U    5  0.653287E+00  0.653287E+00  0.695229E-03
     1         17     2     3  0.653461E+00  0.653461E+00  0.173807E-03
     1         18     1U    7  0.653461E+00  0.653461E+00  0.173807E-03
     1         18     2     2  0.653504E+00  0.653504E+00  0.434518E-04
     1         19     1     3  0.653548E+00  0.653548E+00  0.434518E-04
     1         20     1U    4  0.653548E+00  0.653548E+00  0.651777E-04
     1         20     2     2  0.653564E+00  0.653564E+00  0.162944E-04
     1         21     1     3  0.653580E+00  0.653580E+00  0.162944E-04
     1         22     1U    7  0.653580E+00  0.653580E+00  0.244416E-04
