SUMMARY OF JOB INFORMATION
  STEP      INC     ATT  ITRS     TOT TIME     STEP TIME      INC TIME
     1          1     1U    9  0.000000E+00  0.000000E+00  0.100000E+01
     1          1     2     3  0.250000E+00  0.250000E+00  0.250000E+00
     1          2     1U    4  0.250000E+00  0.250000E+00  0.250000E+00
     1          2     2     2  0.312500E+00  0.312500E+00  0.625000E-01
     1          3     1     2  0.375000E+00  0.375000E+00  0.625000E-01
     1          4     1U    4  0.375000E+00  0.375000E+00  0.937500E-01
     1          4     2     2  0.398438E+00  0.398438E+00  0.234375E-01
     1          5     1     2  0.421875E+00  0.421875E+00  0.234375E-01
     1          6     1     3  0.457031E+00  0.457031E+00  0.351562E-01
     1          7     1U    4  0.457031E+00  0.457031E+00  0.527344E-01
     1          7     2     2  0.470215E+00  0.470215E+00  0.131836E-01
     1          8     1     3  0.483398E+00  0.483398E+00  0.131836E-01
     1          9     1     3  0.503174E+00  0.503174E+00  0.197754E-01
     1         10     1     3  0.532837E+00  0.532837E+00  0.296631E-01
     1         11     1     3  0.577332E+00  0.577332E+00  0.444946E-01
     1         12     1     3  0.644073E+00  0.644073E+00  0.667419E-01
     1         13     1U    4  0.644073E+00  0.644073E+00  0.100113E+00
     1         13     2     2  0.669102E+00  0.669102E+00  0.250282E-01
     1         14     1     2  0.694130E+00  0.694130E+00  0.250282E-01
     1         15     1     4  0.731672E+00  0.731672E+00  0.375423E-01
     1         16     1     3  0.787986E+00  0.787986E+00  0.563135E-01
     1         17     1     3  0.872456E+00  0.872456E+00  0.844703E-01
     1         18     1     3  0.999161E+00  0.999161E+00  0.126705E+00
     1         19     1     2  0.100000E+01  0.100000E+01  0.838518E-03
