SUMMARY OF JOB INFORMATION
  STEP      INC     ATT  ITRS     TOT TIME     STEP TIME      INC TIME
     1          1     1U    5  0.000000E+00  0.000000E+00  0.100000E+01
     1          1     2     4  0.250000E+00  0.250000E+00  0.250000E+00
     1          2     1     2  0.500000E+00  0.500000E+00  0.250000E+00
     1          3     1     2  0.875000E+00  0.875000E+00  0.375000E+00
     1          4     1     2  0.100000E+01  0.100000E+01  0.125000E+00
