SUMMARY OF JOB INFORMATION
  STEP      INC     ATT  ITRS     TOT TIME     STEP TIME      INC TIME
     1          1     1U    5  0.000000E+00  0.000000E+00  0.100000E+01
     1          1     2     5  0.250000E+00  0.250000E+00  0.250000E+00
     1          2     1U    4  0.250000E+00  0.250000E+00  0.250000E+00
     1          2     2     6  0.312500E+00  0.312500E+00  0.625000E-01
     1          3     1     3  0.375000E+00  0.375000E+00  0.625000E-01
     1          4     1U    4  0.375000E+00  0.375000E+00  0.625000E-01
     1          4     2     2  0.390625E+00  0.390625E+00  0.156250E-01
     1          5     1     2  0.406250E+00  0.406250E+00  0.156250E-01
     1          6     1     4  0.429688E+00  0.429688E+00  0.234375E-01
     1          7     1U    4  0.429688E+00  0.429688E+00  0.351562E-01
     1          7     2     2  0.438477E+00  0.438477E+00  0.878906E-02
     1          8     1     2  0.447266E+00  0.447266E+00  0.878906E-02
     1          9     1     3  0.460449E+00  0.460449E+00  0.131836E-01
     1         10     1     3  0.480225E+00  0.480225E+00  0.197754E-01
     1         11     1     3  0.509888E+00  0.509888E+00  0.296631E-01
     1         12     1     5  0.554382E+00  0.554382E+00  0.444946E-01
     1         13     1     3  0.598877E+00  0.598877E+00  0.444946E-01
     1         14     1     3  0.643372E+00  0.643372E+00  0.444946E-01
     1         15     1     3  0.710114E+00  0.710114E+00  0.667419E-01
     1         16     1     3  0.810226E+00  0.810226E+00  0.100113E+00
     1         17     1     3  0.960396E+00  0.960396E+00  0.150169E+00
     1         18     1     3  0.100000E+01  0.100000E+01  0.396042E-01
