SUMMARY OF JOB INFORMATION
  STEP      INC     ATT  ITRS     TOT TIME     STEP TIME      INC TIME
     1          1     1U    5  0.000000E+00  0.000000E+00  0.100000E+01
     1          1     2     3  0.250000E+00  0.250000E+00  0.250000E+00
     1          2     1U    4  0.250000E+00  0.250000E+00  0.250000E+00
     1          2     2     2  0.312500E+00  0.312500E+00  0.625000E-01
     1          3     1     2  0.375000E+00  0.375000E+00  0.625000E-01
     1          4     1     4  0.468750E+00  0.468750E+00  0.937500E-01
     1          5     1U    5  0.468750E+00  0.468750E+00  0.140625E+00
     1          5     2     5  0.503906E+00  0.503906E+00  0.351562E-01
     1          6     1     4  0.539062E+00  0.539062E+00  0.351562E-01
     1          7     1U    8  0.539062E+00  0.539062E+00  0.351562E-01
     1          7     2     8  0.556641E+00  0.556641E+00  0.175781E-01
     1          8     1     6  0.574219E+00  0.574219E+00  0.175781E-01
     1          9     1     6  0.591797E+00  0.591797E+00  0.175781E-01
     1         10     1     5  0.609375E+00  0.609375E+00  0.175781E-01
     1         11     1     4  0.626953E+00  0.626953E+00  0.175781E-01
     1         12     1     6  0.644531E+00  0.644531E+00  0.175781E-01
     1         13     1U    9  0.644531E+00  0.644531E+00  0.175781E-01
     1         13     2    10  0.653320E+00  0.653320E+00  0.878906E-02
     1         14     1     5  0.662109E+00  0.662109E+00  0.878906E-02
     1         15     1U    5  0.662109E+00  0.662109E+00  0.878906E-02
     1         15     2U    7  0.662109E+00  0.662109E+00  0.219727E-02
     1         15     3     3  0.662659E+00  0.662659E+00  0.549316E-03
     1         16     1U    7  0.662659E+00  0.662659E+00  0.549316E-03
     1         16     2     3  0.662796E+00  0.662796E+00  0.137329E-03
     1         17     1     4  0.662933E+00  0.662933E+00  0.137329E-03
     1         18     1U    5  0.662933E+00  0.662933E+00  0.205994E-03
     1         18     2U    5  0.662933E+00  0.662933E+00  0.514984E-04
     1         18     3U    6  0.662933E+00  0.662933E+00  0.128746E-04
