SUMMARY OF JOB INFORMATION
  STEP      INC     ATT  ITRS     TOT TIME     STEP TIME      INC TIME
     1          1     1U    8  0.000000E+00  0.000000E+00  0.100000E+01
     1          1     2U    5  0.000000E+00  0.000000E+00  0.500000E+00
     1          1     3     2  0.125000E+00  0.125000E+00  0.125000E+00
     1          2     1     2  0.250000E+00  0.250000E+00  0.125000E+00
     1          3     1     3  0.437500E+00  0.437500E+00  0.187500E+00
     1          4     1U    5  0.437500E+00  0.437500E+00  0.281250E+00
     1          4     2U    4  0.437500E+00  0.437500E+00  0.703125E-01
     1          4     3     2  0.455078E+00  0.455078E+00  0.175781E-01
     1          5     1     4  0.472656E+00  0.472656E+00  0.175781E-01
     1          6     1     4  0.499023E+00  0.499023E+00  0.263672E-01
     1          7     1     4  0.538574E+00  0.538574E+00  0.395508E-01
     1          8     1U    8  0.538574E+00  0.538574E+00  0.593262E-01
     1          8     2     6  0.553406E+00  0.553406E+00  0.148315E-01
     1          9     1     9  0.568237E+00  0.568237E+00  0.148315E-01
     1         10     1     5  0.583069E+00  0.583069E+00  0.148315E-01
     1         11     1     5  0.597900E+00  0.597900E+00  0.148315E-01
     1         12     1     4  0.612732E+00  0.612732E+00  0.148315E-01
     1         13     1     4  0.627563E+00  0.627563E+00  0.148315E-01
     1         14     1     7  0.649811E+00  0.649811E+00  0.222473E-01
     1         15     1U    7  0.649811E+00  0.649811E+00  0.222473E-01
     1         15     2    12  0.655373E+00  0.655373E+00  0.556183E-02
     1         16     1     6  0.660934E+00  0.660934E+00  0.556183E-02
     1         17     1U    7  0.660934E+00  0.660934E+00  0.556183E-02
     1         17     2     3  0.662325E+00  0.662325E+00  0.139046E-02
     1         18     1U    5  0.662325E+00  0.662325E+00  0.139046E-02
     1         18     2     3  0.662673E+00  0.662673E+00  0.347614E-03
     1         19     1U    4  0.662673E+00  0.662673E+00  0.347614E-03
     1         19     2     2  0.662759E+00  0.662759E+00  0.869036E-04
     1         20     1     3  0.662846E+00  0.662846E+00  0.869036E-04
     1         21     1U    4  0.662846E+00  0.662846E+00  0.130355E-03
     1         21     2     2  0.662879E+00  0.662879E+00  0.325888E-04
     1         22     1     3  0.662912E+00  0.662912E+00  0.325888E-04
     1         23     1U    5  0.662912E+00  0.662912E+00  0.488833E-04
     1         23     2     3  0.662924E+00  0.662924E+00  0.122208E-04
     1         24     1U    4  0.662924E+00  0.662924E+00  0.122208E-04
