*node, nset=nall
1, 0.,0.
2, 0.00833333,0.        
3, 0.01666667,0.        
4, 0.025,0.   
5, 0.03333333,0.        
6, 0.04166667,0.        
7, 0.05,0.  
8, 0.05833333,0.        
9, 0.06666667,0.        
14, 0.     ,0.00625
15, 0.00833333,0.00625   
16, 0.01666667,0.00625   
17, 0.025  ,0.00625
18, 0.03333333,0.00625   
19, 0.04166667,0.00625   
20, 0.05   ,0.00625
21, 0.05833333,0.00625   
22, 0.06666667,0.00625   
27, 0.    ,0.0125
28, 0.00833333,0.0125    
** ... 621 like lines cut
*element,type=b32,elset=b_1
1,  1,66,67
2, 67,68,69
3, 69,70,71
4, 71,72, 2
*element,type=b32,elset=b_2
5,  1,73,74
6, 74,75,76
7, 76,77,14
*element,type=b32,elset=b_3
8,  2,78,79
9, 79,80,81
10, 81,82,83
11, 83,84, 3
*element,type=b32,elset=b_4
12,  2,85,86
13, 86,87,88
14, 88,89,15
*element,type=b32,elset=b_5
15,  3,90,91
16, 91,92,93
17, 93,94,95
18, 95,96, 4
*element,type=b32,elset=b_6
19,  3,97,98
20,  98, 99,100
21, 100,101, 16
*element,type=b32,elset=b_7
22,   4,102,103
23, 103,104,105
24, 105,106,107
25, 107,108,  5
*element,type=b32,elset=b_8
26,   4,109,110
27, 110,111,112
28, 112,113, 17
*element,type=b32,elset=b_9
29,   5,114,115
30, 115,116,117
31, 117,118,119
32, 119,120,  6
*element,type=b32,elset=b_10
33,   5,121,122
34, 122,123,124
35, 124,125, 18
*element,type=b32,elset=b_11
36,   6,126,127
37, 127,128,129
38, 129,130,131
39, 131,132,  7
*element,type=b32,elset=b_12
40,   6,133,134
41, 134,135,136
42, 136,137, 19
*element,type=b32,elset=b_13
43,   7,138,139
44, 139,140,141
45, 141,142,143
46, 143,144,  8
*element,type=b32,elset=b_14
47,   7,145,146
48, 146,147,148
49, 148,149, 20
*element,type=b32,elset=b_15
50,   8,150,151
51, 151,152,153
52, 153,154,155
53, 155,156,  9
*element,type=b32,elset=b_16
54,   8,157,158
55, 158,159,160
56, 160,161, 21
*element,type=b32,elset=b_17
57,   9,169,170
58, 170,171,172
59, 172,173, 22
*element,type=b32,elset=b_18
60,  14,215,216
61, 216,217,218
62, 218,219,220
63, 220,221, 15
*element,type=b32,elset=b_19
64,  14,222,223
65, 223,224,225
66, 225,226, 27
*element,type=b32,elset=b_20
67,  15,227,228
68, 228,229,230
69, 230,231,232
70, 232,233, 16
*element,type=b32,elset=b_21
71,  15,234,235
72, 235,236,237
73, 237,238, 28
*element,type=b32,elset=b_22
74,  16,239,240
75, 240,241,242
76, 242,243,244
77, 244,245, 17
*element,type=b32,elset=b_23
78,  16,246,247
79, 247,248,249
80, 249,250, 29
*element,type=b32,elset=b_24
81,  17,251,252
82, 252,253,254
83, 254,255,256
84, 256,257, 18
*element,type=b32,elset=b_25
85,  17,258,259
86, 259,260,261
87, 261,262, 30
*element,type=b32,elset=b_26
88,  18,263,264
89, 264,265,266
90, 266,267,268
91, 268,269, 19
*element,type=b32,elset=b_27
92,  18,270,271
93, 271,272,273
94, 273,274, 31
*element,type=b32,elset=b_28
95,  19,275,276
96, 276,277,278
97, 278,279,280
98, 280,281, 20
*element,type=b32,elset=b_29
99,  19,282,283
100, 283,284,285
101, 285,286, 32
*element,type=b32,elset=b_30
102,  20,287,288
103, 288,289,290
104, 290,291,292
105, 292,293, 21
*element,type=b32,elset=b_31
106,  20,294,295
107, 295,296,297
108, 297,298, 33
*element,type=b32,elset=b_32
109,  21,299,300
110, 300,301,302
111, 302,303,304
112, 304,305, 22
*element,type=b32,elset=b_33
113,  21,306,307
114, 307,308,309
115, 309,310, 34
*element,type=b32,elset=b_34
116,  22,318,319
117, 319,320,321
118, 321,322, 35
*element,type=b32,elset=b_35
119,  27,364,365
120, 365,366,367
121, 367,368,369
122, 369,370, 28
*element,type=b32,elset=b_36
123,  27,371,372
124, 372,373,374
125, 374,375, 40
*element,type=b32,elset=b_37
126,  28,376,377
127, 377,378,379
128, 379,380,381
129, 381,382, 29
*element,type=b32,elset=b_38
130,  28,383,384
131, 384,385,386
132, 386,387, 41
*element,type=b32,elset=b_39
133,  29,388,389
134, 389,390,391
135, 391,392,393
136, 393,394, 30
*element,type=b32,elset=b_40
137,  29,395,396
138, 396,397,398
139, 398,399, 42
*element,type=b32,elset=b_41
140,  30,400,401
141, 401,402,403
142, 403,404,405
143, 405,406, 31
*element,type=b32,elset=b_42
144,  30,407,408
145, 408,409,410
146, 410,411, 43
*element,type=b32,elset=b_43
147,  31,412,413
148, 413,414,415
149, 415,416,417
150, 417,418, 32
*element,type=b32,elset=b_44
151,  31,419,420
152, 420,421,422
153, 422,423, 44
*element,type=b32,elset=b_45
154,  32,424,425
155, 425,426,427
156, 427,428,429
157, 429,430, 33
*element,type=b32,elset=b_46
158,  32,431,432
159, 432,433,434
160, 434,435, 45
*element,type=b32,elset=b_47
161,  33,436,437
162, 437,438,439
163, 439,440,441
164, 441,442, 34
*element,type=b32,elset=b_48
165,  33,443,444
166, 444,445,446
167, 446,447, 46
*element,type=b32,elset=b_49
168,  34,448,449
169, 449,450,451
170, 451,452,453
171, 453,454, 35
*element,type=b32,elset=b_50
172,  34,455,456
173, 456,457,458
174, 458,459, 47
*element,type=b32,elset=b_51
175,  35,460,461
176, 461,462,463
177, 463,464,465
178, 465,466, 36
*element,type=b32,elset=b_52
179,  35,467,468
180, 468,469,470
181, 470,471, 48
*element,type=b32,elset=b_53
182,  36,472,473
183, 473,474,475
184, 475,476,477
185, 477,478, 37
*element,type=b32,elset=b_54
186,  36,479,480
187, 480,481,482
188, 482,483, 49
*element,type=b32,elset=b_55
189,  37,484,485
190, 485,486,487
191, 487,488,489
192, 489,490, 38
*element,type=b32,elset=b_56
193,  37,491,492
194, 492,493,494
195, 494,495, 50
*element,type=b32,elset=b_57
196,  38,496,497
197, 497,498,499
198, 499,500,501
199, 501,502, 39
*element,type=b32,elset=b_58
200,  38,503,504
201, 504,505,506
202, 506,507, 51
*element,type=b32,elset=b_59
203,  39,508,509
204, 509,510,511
205, 511,512, 52
*element,type=b32,elset=b_60
206,  40,513,514
207, 514,515,516
208, 516,517,518
209, 518,519, 41
*element,type=b32,elset=b_61
210,  40,520,521
211, 521,522,523
212, 523,524, 53
*element,type=b32,elset=b_62
213,  41,525,526
214, 526,527,528
215, 528,529,530
216, 530,531, 42
*element,type=b32,elset=b_63
217,  41,532,533
218, 533,534,535
219, 535,536, 54
*element,type=b32,elset=b_64
220,  42,537,538
221, 538,539,540
222, 540,541,542
223, 542,543, 43
*element,type=b32,elset=b_65
224,  42,544,545
225, 545,546,547
226, 547,548, 55
*element,type=b32,elset=b_66
227,  43,549,550
228, 550,551,552
229, 552,553,554
230, 554,555, 44
*element,type=b32,elset=b_67
231,  43,556,557
232, 557,558,559
233, 559,560, 56
*element,type=b32,elset=b_68
234,  44,561,562
235, 562,563,564
236, 564,565,566
237, 566,567, 45
*element,type=b32,elset=b_69
238,  44,568,569
239, 569,570,571
240, 571,572, 57
*element,type=b32,elset=b_70
241,  45,573,574
242, 574,575,576
243, 576,577,578
244, 578,579, 46
*element,type=b32,elset=b_71
245,  45,580,581
246, 581,582,583
247, 583,584, 58
*element,type=b32,elset=b_72
248,  46,585,586
249, 586,587,588
250, 588,589,590
251, 590,591, 47
*element,type=b32,elset=b_73
252,  46,592,593
253, 593,594,595
254, 595,596, 59
*element,type=b32,elset=b_74
255,  47,597,598
256, 598,599,600
257, 600,601,602
258, 602,603, 48
*element,type=b32,elset=b_75
259,  47,604,605
260, 605,606,607
261, 607,608, 60
*element,type=b32,elset=b_76
262,  48,609,610
263, 610,611,612
264, 612,613,614
265, 614,615, 49
*element,type=b32,elset=b_77
266,  48,616,617
267, 617,618,619
268, 619,620, 61
*element,type=b32,elset=b_78
269,  49,621,622
270, 622,623,624
271, 624,625,626
272, 626,627, 50
*element,type=b32,elset=b_79
273,  49,628,629
274, 629,630,631
275, 631,632, 62
*element,type=b32,elset=b_80
276,  50,633,634
277, 634,635,636
278, 636,637,638
279, 638,639, 51
*element,type=b32,elset=b_81
280,  50,640,641
281, 641,642,643
282, 643,644, 63
*element,type=b32,elset=b_82
283,  51,645,646
284, 646,647,648
285, 648,649,650
286, 650,651, 52
*element,type=b32,elset=b_83
287,  51,652,653
288, 653,654,655
289, 655,656, 64
*element,type=b32,elset=b_84
290,  52,657,658
291, 658,659,660
292, 660,661, 65
*element,type=b32,elset=b_85
293,  53,662,663
294, 663,664,665
295, 665,666,667
296, 667,668, 54
*element,type=b32,elset=b_86
297,  54,669,670
298, 670,671,672
299, 672,673,674
300, 674,675, 55
*element,type=b32,elset=b_87
301,  55,676,677
302, 677,678,679
303, 679,680,681
304, 681,682, 56
*element,type=b32,elset=b_88
305,  56,683,684
306, 684,685,686
307, 686,687,688
308, 688,689, 57
*element,type=b32,elset=b_89
309,  57,690,691
310, 691,692,693
311, 693,694,695
312, 695,696, 58
*element,type=b32,elset=b_90
313,  58,697,698
314, 698,699,700
315, 700,701,702
316, 702,703, 59
*element,type=b32,elset=b_91
317,  59,704,705
318, 705,706,707
319, 707,708,709
320, 709,710, 60
*element,type=b32,elset=b_92
321,  60,711,712
322, 712,713,714
323, 714,715,716
324, 716,717, 61
*element,type=b32,elset=b_93
325,  61,718,719
326, 719,720,721
327, 721,722,723
328, 723,724, 62
*element,type=b32,elset=b_94
329,  62,725,726
330, 726,727,728
331, 728,729,730
332, 730,731, 63
*element,type=b32,elset=b_95
333,  63,732,733
334, 733,734,735
335, 735,736,737
336, 737,738, 64
*element,type=b32,elset=b_96
337,  64,739,740
338, 740,741,742
339, 742,743,744
340, 744,745, 65
*elset, elset=elall
b_1,
b_2,
b_3,
b_4,
b_5,
b_6,
b_7,
b_8,
b_9,
b_10,
b_11,
b_12,
b_13,
b_14,
b_15,
b_16,
b_17,
b_18,
b_19,
b_20,
** ... 76 like lines cut
*material, name=mesh_material
*elastic, type=iso
2980000000.0, 0.2
*beam section, elset=b_1,material=mesh_material, section=rect
0.008, 0.002
0.d0,0.d0,1.d0
*beam section, elset=b_2,material=mesh_material, section=rect
0.008, 0.002
0.d0,0.d0,1.d0
*beam section, elset=b_3,material=mesh_material, section=rect
0.008, 0.002
0.d0,0.d0,1.d0
*beam section, elset=b_4,material=mesh_material, section=rect
0.008, 0.002
0.d0,0.d0,1.d0
*beam section, elset=b_5,material=mesh_material, section=rect
0.008, 0.002
0.d0,0.d0,1.d0
*beam section, elset=b_6,material=mesh_material, section=rect
0.008, 0.002
0.d0,0.d0,1.d0
*beam section, elset=b_7,material=mesh_material, section=rect
0.008, 0.002
0.d0,0.d0,1.d0
*beam section, elset=b_8,material=mesh_material, section=rect
0.008, 0.002
0.d0,0.d0,1.d0
*beam section, elset=b_9,material=mesh_material, section=rect
0.008, 0.002
0.d0,0.d0,1.d0
*beam section, elset=b_10,material=mesh_material, section=rect
0.008, 0.002
0.d0,0.d0,1.d0
*beam section, elset=b_11,material=mesh_material, section=rect
0.008, 0.002
0.d0,0.d0,1.d0
*beam section, elset=b_12,material=mesh_material, section=rect
0.008, 0.002
0.d0,0.d0,1.d0
*beam section, elset=b_13,material=mesh_material, section=rect
0.008, 0.002
0.d0,0.d0,1.d0
*beam section, elset=b_14,material=mesh_material, section=rect
0.008, 0.002
0.d0,0.d0,1.d0
*beam section, elset=b_15,material=mesh_material, section=rect
0.008, 0.002
0.d0,0.d0,1.d0
*beam section, elset=b_16,material=mesh_material, section=rect
0.008, 0.002
0.d0,0.d0,1.d0
*beam section, elset=b_17,material=mesh_material, section=rect
0.008, 0.002
0.d0,0.d0,1.d0
*beam section, elset=b_18,material=mesh_material, section=rect
0.008, 0.002
0.d0,0.d0,1.d0
*beam section, elset=b_19,material=mesh_material, section=rect
0.008, 0.002
0.d0,0.d0,1.d0
*beam section, elset=b_20,material=mesh_material, section=rect
0.008, 0.002
0.d0,0.d0,1.d0
** ... 228 like lines cut
*boundary
1, 3,5
2, 3,5
3, 3,5
4, 3,5
5, 3,5
6, 3,5
7, 3,5
8, 3,5
9, 3,5
14, 3,5
15, 3,5
16, 3,5
17, 3,5
18, 3,5
19, 3,5
20, 3,5
21, 3,5
22, 3,5
27, 3,5
28, 3,5
** ... 621 like lines cut
*boundary
2, 2
2, 6
3, 2
3, 6
4, 2
4, 6
5, 2
5, 6
6, 2
6, 6
7, 2
7, 6
8, 2
8, 6
9, 2
9, 6
1, 2
1, 6
53, 1
53, 2
59, 1
59, 2
*step, nlgeom
*static
*cload
1, 1, -100.0
36, 2, 5.0
37, 2, 5.0
38, 2, 5.0
39, 2, 5.0
*el print, elset=elall
s
*node file, output=2d, nset=nall
u
*el file, elset=elall
s,noe
*end step