SUMMARY OF JOB INFORMATION
  STEP      INC     ATT  ITRS     TOT TIME     STEP TIME      INC TIME
     1          1     1U    7  0.000000E+00  0.000000E+00  0.100000E+01
     1          1     2     3  0.250000E+00  0.250000E+00  0.250000E+00
     1          2     1U    4  0.250000E+00  0.250000E+00  0.250000E+00
     1          2     2     2  0.312500E+00  0.312500E+00  0.625000E-01
     1          3     1     2  0.375000E+00  0.375000E+00  0.625000E-01
     1          4     1     5  0.468750E+00  0.468750E+00  0.937500E-01
     1          5     1U    6  0.468750E+00  0.468750E+00  0.937500E-01
     1          5     2     4  0.492188E+00  0.492188E+00  0.234375E-01
     1          6     1     5  0.515625E+00  0.515625E+00  0.234375E-01
     1          7     1     3  0.539062E+00  0.539062E+00  0.234375E-01
     1          8     1     8  0.562500E+00  0.562500E+00  0.234375E-01
     1          9     1U    8  0.562500E+00  0.562500E+00  0.234375E-01
     1          9     2     5  0.574219E+00  0.574219E+00  0.117188E-01
     1         10     1     5  0.585938E+00  0.585938E+00  0.117188E-01
     1         11     1     4  0.597656E+00  0.597656E+00  0.117188E-01
     1         12     1     4  0.609375E+00  0.609375E+00  0.117188E-01
     1         13     1     4  0.626953E+00  0.626953E+00  0.175781E-01
     1         14     1     9  0.653320E+00  0.653320E+00  0.263672E-01
     1         15     1U    4  0.653320E+00  0.653320E+00  0.263672E-01
     1         15     2     7  0.659912E+00  0.659912E+00  0.659180E-02
     1         16     1U    4  0.659912E+00  0.659912E+00  0.659180E-02
     1         16     2     4  0.661560E+00  0.661560E+00  0.164795E-02
     1         17     1U    5  0.661560E+00  0.661560E+00  0.164795E-02
     1         17     2     2  0.661972E+00  0.661972E+00  0.411987E-03
     1         18     1     3  0.662384E+00  0.662384E+00  0.411987E-03
     1         19     1     3  0.663002E+00  0.663002E+00  0.617981E-03
     1         20     1U    5  0.663002E+00  0.663002E+00  0.926971E-03
     1         20     2U    4  0.663002E+00  0.663002E+00  0.231743E-03
     1         20     3     3  0.663060E+00  0.663060E+00  0.579357E-04
     1         21     1     3  0.663118E+00  0.663118E+00  0.579357E-04
     1         22     1U    5  0.663118E+00  0.663118E+00  0.869036E-04
     1         22     2U    5  0.663118E+00  0.663118E+00  0.217259E-04
