*node, nset=nall
1, 0.,0.
2, 0.00833333,0.        
3, 0.01666667,0.        
4, 0.025,0.   
5, 0.03333333,0.        
6, 0.04166667,0.        
7, 0.05,0.  
8, 0.05833333,0.        
9, 0.06666667,0.        
14, 0.     ,0.00625
15, 0.00833333,0.00625   
16, 0.01666667,0.00625   
17, 0.025  ,0.00625
18, 0.03333333,0.00625   
19, 0.04166667,0.00625   
20, 0.05   ,0.00625
21, 0.05833333,0.00625   
22, 0.06666667,0.00625   
27, 0.    ,0.0125
28, 0.00833333,0.0125    
** ... 859 like lines cut
*element,type=b32,elset=b_1
1,  1,66,67
2, 67,68,69
3, 69,70,71
4, 71,72, 2
*element,type=b32,elset=b_2
5,  1,73,74
6, 74,75,76
7, 76,77,14
*element,type=b32,elset=b_3
8,  1,78,79
9, 79,80,81
10, 81,82,83
11, 83,84,85
12, 85,86,15
*element,type=b32,elset=b_4
13,  2,87,88
14, 88,89,90
15, 90,91,92
16, 92,93, 3
*element,type=b32,elset=b_5
17,  2,94,95
18, 95,96,97
19, 97,98,15
*element,type=b32,elset=b_6
20,   3,108,109
21, 109,110,111
22, 111,112,113
23, 113,114,  4
*element,type=b32,elset=b_7
24,   3,115,116
25, 116,117,118
26, 118,119, 16
*element,type=b32,elset=b_8
27,   3,120,121
28, 121,122,123
29, 123,124,125
30, 125,126,127
31, 127,128, 17
*element,type=b32,elset=b_9
32,   4,129,130
33, 130,131,132
34, 132,133,134
35, 134,135,  5
*element,type=b32,elset=b_10
36,   4,136,137
37, 137,138,139
38, 139,140, 17
*element,type=b32,elset=b_11
39,   4,141,142
40, 142,143,144
41, 144,145,146
42, 146,147,148
43, 148,149, 18
*element,type=b32,elset=b_12
44,   5,150,151
45, 151,152,153
46, 153,154,155
47, 155,156,  6
*element,type=b32,elset=b_13
48,   5,157,158
49, 158,159,160
50, 160,161, 18
*element,type=b32,elset=b_14
51,   6,171,172
52, 172,173,174
53, 174,175,176
54, 176,177,  7
*element,type=b32,elset=b_15
55,   6,178,179
56, 179,180,181
57, 181,182, 19
*element,type=b32,elset=b_16
58,   7,192,193
59, 193,194,195
60, 195,196,197
61, 197,198,  8
*element,type=b32,elset=b_17
62,   7,199,200
63, 200,201,202
64, 202,203, 20
*element,type=b32,elset=b_18
65,   7,204,205
66, 205,206,207
67, 207,208,209
68, 209,210,211
69, 211,212, 21
*element,type=b32,elset=b_19
70,   8,220,221
71, 221,222,223
72, 223,224, 21
*element,type=b32,elset=b_20
73,   8,225,226
74, 226,227,228
75, 228,229,230
76, 230,231,232
77, 232,233, 22
*element,type=b32,elset=b_21
78,   9,241,242
79, 242,243,244
80, 244,245, 22
*element,type=b32,elset=b_22
81,  14,323,324
82, 324,325,326
83, 326,327,328
84, 328,329, 15
*element,type=b32,elset=b_23
85,  14,330,331
86, 331,332,333
87, 333,334, 27
*element,type=b32,elset=b_24
88,  14,335,336
89, 336,337,338
90, 338,339,340
91, 340,341,342
92, 342,343, 28
*element,type=b32,elset=b_25
93,  15,344,345
94, 345,346,347
95, 347,348,349
96, 349,350, 16
*element,type=b32,elset=b_26
97,  15,351,352
98, 352,353,354
99, 354,355, 28
*element,type=b32,elset=b_27
100,  15,356,357
101, 357,358,359
102, 359,360,361
103, 361,362,363
104, 363,364, 29
*element,type=b32,elset=b_28
105,  16,365,366
106, 366,367,368
107, 368,369,370
108, 370,371, 17
*element,type=b32,elset=b_29
109,  16,372,373
110, 373,374,375
111, 375,376, 29
*element,type=b32,elset=b_30
112,  16,377,378
113, 378,379,380
114, 380,381,382
115, 382,383,384
116, 384,385, 30
*element,type=b32,elset=b_31
117,  17,386,387
118, 387,388,389
119, 389,390,391
120, 391,392, 18
*element,type=b32,elset=b_32
121,  17,393,394
122, 394,395,396
123, 396,397, 30
*element,type=b32,elset=b_33
124,  18,407,408
125, 408,409,410
126, 410,411,412
127, 412,413, 19
*element,type=b32,elset=b_34
128,  18,414,415
129, 415,416,417
130, 417,418, 31
*element,type=b32,elset=b_35
131,  18,419,420
132, 420,421,422
133, 422,423,424
134, 424,425,426
135, 426,427, 32
*element,type=b32,elset=b_36
136,  19,428,429
137, 429,430,431
138, 431,432,433
139, 433,434, 20
*element,type=b32,elset=b_37
140,  19,435,436
141, 436,437,438
142, 438,439, 32
*element,type=b32,elset=b_38
143,  20,449,450
144, 450,451,452
145, 452,453,454
146, 454,455, 21
*element,type=b32,elset=b_39
147,  20,456,457
148, 457,458,459
149, 459,460, 33
*element,type=b32,elset=b_40
150,  20,461,462
151, 462,463,464
152, 464,465,466
153, 466,467,468
154, 468,469, 34
*element,type=b32,elset=b_41
155,  21,470,471
156, 471,472,473
157, 473,474,475
158, 475,476, 22
*element,type=b32,elset=b_42
159,  21,477,478
160, 478,479,480
161, 480,481, 34
*element,type=b32,elset=b_43
162,  21,482,483
163, 483,484,485
164, 485,486,487
165, 487,488,489
166, 489,490, 35
*element,type=b32,elset=b_44
167,  22,498,499
168, 499,500,501
169, 501,502, 35
*element,type=b32,elset=b_45
170,  27,580,581
171, 581,582,583
172, 583,584,585
173, 585,586, 28
*element,type=b32,elset=b_46
174,  27,592,593
175, 593,594,595
176, 595,596,597
177, 597,598,599
178, 599,600, 41
*element,type=b32,elset=b_47
179,  28,601,602
180, 602,603,604
181, 604,605,606
182, 606,607, 29
*element,type=b32,elset=b_48
183,  28,608,609
184, 609,610,611
185, 611,612, 41
*element,type=b32,elset=b_49
186,  28,613,614
187, 614,615,616
188, 616,617,618
189, 618,619,620
190, 620,621, 42
*element,type=b32,elset=b_50
191,  29,622,623
192, 623,624,625
193, 625,626,627
194, 627,628, 30
*element,type=b32,elset=b_51
195,  29,629,630
196, 630,631,632
197, 632,633, 42
*element,type=b32,elset=b_52
198,  29,634,635
199, 635,636,637
200, 637,638,639
201, 639,640,641
202, 641,642, 43
*element,type=b32,elset=b_53
203,  30,643,644
204, 644,645,646
205, 646,647,648
206, 648,649, 31
*element,type=b32,elset=b_54
207,  30,650,651
208, 651,652,653
209, 653,654, 43
*element,type=b32,elset=b_55
210,  31,664,665
211, 665,666,667
212, 667,668,669
213, 669,670, 32
*element,type=b32,elset=b_56
214,  31,671,672
215, 672,673,674
216, 674,675, 44
*element,type=b32,elset=b_57
217,  32,685,686
218, 686,687,688
219, 688,689,690
220, 690,691, 33
*element,type=b32,elset=b_58
221,  32,692,693
222, 693,694,695
223, 695,696, 45
*element,type=b32,elset=b_59
224,  33,706,707
225, 707,708,709
226, 709,710,711
227, 711,712, 34
*element,type=b32,elset=b_60
228,  33,713,714
229, 714,715,716
230, 716,717, 46
*element,type=b32,elset=b_61
231,  33,718,719
232, 719,720,721
233, 721,722,723
234, 723,724,725
235, 725,726, 47
*element,type=b32,elset=b_62
236,  34,727,728
237, 728,729,730
238, 730,731,732
239, 732,733, 35
*element,type=b32,elset=b_63
240,  34,734,735
241, 735,736,737
242, 737,738, 47
*element,type=b32,elset=b_64
243,  34,739,740
244, 740,741,742
245, 742,743,744
246, 744,745,746
247, 746,747, 48
*element,type=b32,elset=b_65
248,  35,748,749
249, 749,750,751
250, 751,752,753
251, 753,754, 36
*element,type=b32,elset=b_66
252,  35,755,756
253, 756,757,758
254, 758,759, 48
*element,type=b32,elset=b_67
255,  35,760,761
256, 761,762,763
257, 763,764,765
258, 765,766,767
259, 767,768, 49
*element,type=b32,elset=b_68
260,  36,769,770
261, 770,771,772
262, 772,773,774
263, 774,775, 37
*element,type=b32,elset=b_69
264,  36,776,777
265, 777,778,779
266, 779,780, 49
*element,type=b32,elset=b_70
267,  36,781,782
268, 782,783,784
269, 784,785,786
270, 786,787,788
271, 788,789, 50
*element,type=b32,elset=b_71
272,  37,790,791
273, 791,792,793
274, 793,794,795
275, 795,796, 38
*element,type=b32,elset=b_72
276,  37,802,803
277, 803,804,805
278, 805,806,807
279, 807,808,809
280, 809,810, 51
*element,type=b32,elset=b_73
281,  38,811,812
282, 812,813,814
283, 814,815,816
284, 816,817, 39
*element,type=b32,elset=b_74
285,  38,818,819
286, 819,820,821
287, 821,822, 51
*element,type=b32,elset=b_75
288,  38,823,824
289, 824,825,826
290, 826,827,828
291, 828,829,830
292, 830,831, 52
*element,type=b32,elset=b_76
293,  39,832,833
294, 833,834,835
295, 835,836, 52
*element,type=b32,elset=b_77
296,  40,849,850
297, 850,851,852
298, 852,853,854
299, 854,855,856
300, 856,857, 54
*element,type=b32,elset=b_78
301,  41,858,859
302, 859,860,861
303, 861,862,863
304, 863,864, 42
*element,type=b32,elset=b_79
305,  41,865,866
306, 866,867,868
307, 868,869, 54
*element,type=b32,elset=b_80
308,  41,870,871
309, 871,872,873
310, 873,874,875
311, 875,876,877
312, 877,878, 55
*element,type=b32,elset=b_81
313,  42,886,887
314, 887,888,889
315, 889,890, 55
*element,type=b32,elset=b_82
316,  42,891,892
317, 892,893,894
318, 894,895,896
319, 896,897,898
320, 898,899, 56
*element,type=b32,elset=b_83
321,  43,900,901
322, 901,902,903
323, 903,904,905
324, 905,906, 44
*element,type=b32,elset=b_84
325,  43,907,908
326, 908,909,910
327, 910,911, 56
*element,type=b32,elset=b_85
328,  43,912,913
329, 913,914,915
330, 915,916,917
331, 917,918,919
332, 919,920, 57
*element,type=b32,elset=b_86
333,  44,921,922
334, 922,923,924
335, 924,925,926
336, 926,927, 45
*element,type=b32,elset=b_87
337,  44,928,929
338, 929,930,931
339, 931,932, 57
*element,type=b32,elset=b_88
340,  44,933,934
341, 934,935,936
342, 936,937,938
343, 938,939,940
344, 940,941, 58
*element,type=b32,elset=b_89
345,  45,942,943
346, 943,944,945
347, 945,946,947
348, 947,948, 46
*element,type=b32,elset=b_90
349,  45,949,950
350, 950,951,952
351, 952,953, 58
*element,type=b32,elset=b_91
352,  45,954,955
353, 955,956,957
354, 957,958,959
355, 959,960,961
356, 961,962, 59
*element,type=b32,elset=b_92
357,  46,963,964
358, 964,965,966
359, 966,967,968
360, 968,969, 47
*element,type=b32,elset=b_93
361,  46,970,971
362, 971,972,973
363, 973,974, 59
*element,type=b32,elset=b_94
364,  47,984,985
365, 985,986,987
366, 987,988,989
367, 989,990, 48
*element,type=b32,elset=b_95
368,  47,996,997
369, 997,998,999
370,  999,1000,1001
371, 1001,1002,1003
372, 1003,1004,  61
*element,type=b32,elset=b_96
373,   48,1005,1006
374, 1006,1007,1008
375, 1008,1009,1010
376, 1010,1011,  49
*element,type=b32,elset=b_97
377,   48,1012,1013
378, 1013,1014,1015
379, 1015,1016,  61
*element,type=b32,elset=b_98
380,   48,1017,1018
381, 1018,1019,1020
382, 1020,1021,1022
383, 1022,1023,1024
384, 1024,1025,  62
*element,type=b32,elset=b_99
385,   49,1026,1027
386, 1027,1028,1029
387, 1029,1030,1031
388, 1031,1032,  50
*element,type=b32,elset=b_100
389,   49,1033,1034
390, 1034,1035,1036
391, 1036,1037,  62
*element,type=b32,elset=b_101
392,   49,1038,1039
393, 1039,1040,1041
394, 1041,1042,1043
395, 1043,1044,1045
396, 1045,1046,  63
*element,type=b32,elset=b_102
397,   50,1047,1048
398, 1048,1049,1050
399, 1050,1051,1052
400, 1052,1053,  51
*element,type=b32,elset=b_103
401,   50,1054,1055
402, 1055,1056,1057
403, 1057,1058,  63
*element,type=b32,elset=b_104
404,   50,1059,1060
405, 1060,1061,1062
406, 1062,1063,1064
407, 1064,1065,1066
408, 1066,1067,  64
*element,type=b32,elset=b_105
409,   51,1068,1069
410, 1069,1070,1071
411, 1071,1072,1073
412, 1073,1074,  52
*element,type=b32,elset=b_106
413,   51,1075,1076
414, 1076,1077,1078
415, 1078,1079,  64
*element,type=b32,elset=b_107
416,   51,1080,1081
417, 1081,1082,1083
418, 1083,1084,1085
419, 1085,1086,1087
420, 1087,1088,  65
*element,type=b32,elset=b_108
421,   52,1089,1090
422, 1090,1091,1092
423, 1092,1093,  65
*element,type=b32,elset=b_109
424,   53,1094,1095
425, 1095,1096,1097
426, 1097,1098,1099
427, 1099,1100,  54
*element,type=b32,elset=b_110
428,   54,1101,1102
429, 1102,1103,1104
430, 1104,1105,1106
431, 1106,1107,  55
*element,type=b32,elset=b_111
432,   55,1108,1109
433, 1109,1110,1111
434, 1111,1112,1113
435, 1113,1114,  56
*element,type=b32,elset=b_112
436,   56,1115,1116
437, 1116,1117,1118
438, 1118,1119,1120
439, 1120,1121,  57
*element,type=b32,elset=b_113
440,   57,1122,1123
441, 1123,1124,1125
442, 1125,1126,1127
443, 1127,1128,  58
*element,type=b32,elset=b_114
444,   58,1129,1130
445, 1130,1131,1132
446, 1132,1133,1134
447, 1134,1135,  59
*element,type=b32,elset=b_115
448,   59,1136,1137
449, 1137,1138,1139
450, 1139,1140,1141
451, 1141,1142,  60
*element,type=b32,elset=b_116
452,   60,1143,1144
453, 1144,1145,1146
454, 1146,1147,1148
455, 1148,1149,  61
*element,type=b32,elset=b_117
456,   61,1150,1151
457, 1151,1152,1153
458, 1153,1154,1155
459, 1155,1156,  62
*element,type=b32,elset=b_118
460,   62,1157,1158
461, 1158,1159,1160
462, 1160,1161,1162
463, 1162,1163,  63
*element,type=b32,elset=b_119
464,   63,1164,1165
465, 1165,1166,1167
466, 1167,1168,1169
467, 1169,1170,  64
*element,type=b32,elset=b_120
468,   64,1171,1172
469, 1172,1173,1174
470, 1174,1175,1176
471, 1176,1177,  65
*elset, elset=elall
b_1,
b_2,
b_3,
b_4,
b_5,
b_6,
b_7,
b_8,
b_9,
b_10,
b_11,
b_12,
b_13,
b_14,
b_15,
b_16,
b_17,
b_18,
b_19,
b_20,
** ... 100 like lines cut
*material, name=mesh_material
*elastic, type=iso
2980000000.0, 0.2
*beam section, elset=b_1,material=mesh_material, section=rect
0.008, 0.0011
0.d0,0.d0,1.d0
*beam section, elset=b_2,material=mesh_material, section=rect
0.008, 0.0003
0.d0,0.d0,1.d0
*beam section, elset=b_3,material=mesh_material, section=rect
0.008, 0.00075
0.d0,0.d0,1.d0
*beam section, elset=b_4,material=mesh_material, section=rect
0.008, 0.0008
0.d0,0.d0,1.d0
*beam section, elset=b_5,material=mesh_material, section=rect
0.008, 0.0005
0.d0,0.d0,1.d0
*beam section, elset=b_6,material=mesh_material, section=rect
0.008, 0.00095
0.d0,0.d0,1.d0
*beam section, elset=b_7,material=mesh_material, section=rect
0.008, 0.0001
0.d0,0.d0,1.d0
*beam section, elset=b_8,material=mesh_material, section=rect
0.008, 0.0004
0.d0,0.d0,1.d0
*beam section, elset=b_9,material=mesh_material, section=rect
0.008, 0.0009
0.d0,0.d0,1.d0
*beam section, elset=b_10,material=mesh_material, section=rect
0.008, 5e-05
0.d0,0.d0,1.d0
*beam section, elset=b_11,material=mesh_material, section=rect
0.008, 5e-05
0.d0,0.d0,1.d0
*beam section, elset=b_12,material=mesh_material, section=rect
0.008, 0.0009
0.d0,0.d0,1.d0
*beam section, elset=b_13,material=mesh_material, section=rect
0.008, 0.0002
0.d0,0.d0,1.d0
*beam section, elset=b_14,material=mesh_material, section=rect
0.008, 0.0008
0.d0,0.d0,1.d0
*beam section, elset=b_15,material=mesh_material, section=rect
0.008, 0.00025
0.d0,0.d0,1.d0
*beam section, elset=b_16,material=mesh_material, section=rect
0.008, 0.0009
0.d0,0.d0,1.d0
*beam section, elset=b_17,material=mesh_material, section=rect
0.008, 0.00015
0.d0,0.d0,1.d0
*beam section, elset=b_18,material=mesh_material, section=rect
0.008, 0.0006
0.d0,0.d0,1.d0
*beam section, elset=b_19,material=mesh_material, section=rect
0.008, 0.00085
0.d0,0.d0,1.d0
*beam section, elset=b_20,material=mesh_material, section=rect
0.008, 0.0009
0.d0,0.d0,1.d0
** ... 300 like lines cut
*boundary
1, 3,5
2, 3,5
3, 3,5
4, 3,5
5, 3,5
6, 3,5
7, 3,5
8, 3,5
9, 3,5
14, 3,5
15, 3,5
16, 3,5
17, 3,5
18, 3,5
19, 3,5
20, 3,5
21, 3,5
22, 3,5
27, 3,5
28, 3,5
** ... 859 like lines cut
*boundary
2, 2
2, 6
3, 2
3, 6
4, 2
4, 6
5, 2
5, 6
6, 2
6, 6
7, 2
7, 6
8, 2
8, 6
9, 2
9, 6
1, 2
1, 6
53, 1
53, 2
59, 1
59, 2
*step, nlgeom
*static
*cload
1, 1, -100.0
36, 2, 5.0
37, 2, 5.0
38, 2, 5.0
39, 2, 5.0
*el print, elset=elall
s
*node file, output=2d, nset=nall
u
*el file, elset=elall
s,noe
*end step