*node, nset=nall
1, 0.,0.
2, 0.00833333,0.        
3, 0.01666667,0.        
4, 0.025,0.   
5, 0.03333333,0.        
6, 0.04166667,0.        
7, 0.05,0.  
8, 0.05833333,0.        
9, 0.06666667,0.        
14, 0.     ,0.00625
15, 0.00833333,0.00625   
16, 0.01666667,0.00625   
17, 0.025  ,0.00625
18, 0.03333333,0.00625   
19, 0.04166667,0.00625   
20, 0.05   ,0.00625
21, 0.05833333,0.00625   
22, 0.06666667,0.00625   
27, 0.    ,0.0125
28, 0.00833333,0.0125    
** ... 976 like lines cut
*element,type=b32,elset=b_1
1,  1,66,67
2, 67,68,69
3, 69,70,71
4, 71,72, 2
*element,type=b32,elset=b_2
5,  1,73,74
6, 74,75,76
7, 76,77,14
*element,type=b32,elset=b_3
8,  1,78,79
9, 79,80,81
10, 81,82,83
11, 83,84,85
12, 85,86,15
*element,type=b32,elset=b_4
13,  2,87,88
14, 88,89,90
15, 90,91,92
16, 92,93, 3
*element,type=b32,elset=b_5
17,  2,94,95
18, 95,96,97
19, 97,98,15
*element,type=b32,elset=b_6
20,   2, 99,100
21, 100,101,102
22, 102,103,104
23, 104,105,106
24, 106,107, 16
*element,type=b32,elset=b_7
25,   3,108,109
26, 109,110,111
27, 111,112,113
28, 113,114,  4
*element,type=b32,elset=b_8
29,   3,115,116
30, 116,117,118
31, 118,119, 16
*element,type=b32,elset=b_9
32,   3,120,121
33, 121,122,123
34, 123,124,125
35, 125,126,127
36, 127,128, 17
*element,type=b32,elset=b_10
37,   4,129,130
38, 130,131,132
39, 132,133,134
40, 134,135,  5
*element,type=b32,elset=b_11
41,   4,136,137
42, 137,138,139
43, 139,140, 17
*element,type=b32,elset=b_12
44,   4,141,142
45, 142,143,144
46, 144,145,146
47, 146,147,148
48, 148,149, 18
*element,type=b32,elset=b_13
49,   5,150,151
50, 151,152,153
51, 153,154,155
52, 155,156,  6
*element,type=b32,elset=b_14
53,   5,157,158
54, 158,159,160
55, 160,161, 18
*element,type=b32,elset=b_15
56,   5,162,163
57, 163,164,165
58, 165,166,167
59, 167,168,169
60, 169,170, 19
*element,type=b32,elset=b_16
61,   6,171,172
62, 172,173,174
63, 174,175,176
64, 176,177,  7
*element,type=b32,elset=b_17
65,   6,178,179
66, 179,180,181
67, 181,182, 19
*element,type=b32,elset=b_18
68,   6,183,184
69, 184,185,186
70, 186,187,188
71, 188,189,190
72, 190,191, 20
*element,type=b32,elset=b_19
73,   7,192,193
74, 193,194,195
75, 195,196,197
76, 197,198,  8
*element,type=b32,elset=b_20
77,   7,199,200
78, 200,201,202
79, 202,203, 20
*element,type=b32,elset=b_21
80,   7,204,205
81, 205,206,207
82, 207,208,209
83, 209,210,211
84, 211,212, 21
*element,type=b32,elset=b_22
85,   8,213,214
86, 214,215,216
87, 216,217,218
88, 218,219,  9
*element,type=b32,elset=b_23
89,   8,220,221
90, 221,222,223
91, 223,224, 21
*element,type=b32,elset=b_24
92,   8,225,226
93, 226,227,228
94, 228,229,230
95, 230,231,232
96, 232,233, 22
*element,type=b32,elset=b_25
97,   9,241,242
98, 242,243,244
99, 244,245, 22
*element,type=b32,elset=b_26
100,  14,323,324
101, 324,325,326
102, 326,327,328
103, 328,329, 15
*element,type=b32,elset=b_27
104,  14,330,331
105, 331,332,333
106, 333,334, 27
*element,type=b32,elset=b_28
107,  14,335,336
108, 336,337,338
109, 338,339,340
110, 340,341,342
111, 342,343, 28
*element,type=b32,elset=b_29
112,  15,344,345
113, 345,346,347
114, 347,348,349
115, 349,350, 16
*element,type=b32,elset=b_30
116,  15,351,352
117, 352,353,354
118, 354,355, 28
*element,type=b32,elset=b_31
119,  15,356,357
120, 357,358,359
121, 359,360,361
122, 361,362,363
123, 363,364, 29
*element,type=b32,elset=b_32
124,  16,365,366
125, 366,367,368
126, 368,369,370
127, 370,371, 17
*element,type=b32,elset=b_33
128,  16,372,373
129, 373,374,375
130, 375,376, 29
*element,type=b32,elset=b_34
131,  16,377,378
132, 378,379,380
133, 380,381,382
134, 382,383,384
135, 384,385, 30
*element,type=b32,elset=b_35
136,  17,386,387
137, 387,388,389
138, 389,390,391
139, 391,392, 18
*element,type=b32,elset=b_36
140,  17,393,394
141, 394,395,396
142, 396,397, 30
*element,type=b32,elset=b_37
143,  17,398,399
144, 399,400,401
145, 401,402,403
146, 403,404,405
147, 405,406, 31
*element,type=b32,elset=b_38
148,  18,407,408
149, 408,409,410
150, 410,411,412
151, 412,413, 19
*element,type=b32,elset=b_39
152,  18,414,415
153, 415,416,417
154, 417,418, 31
*element,type=b32,elset=b_40
155,  18,419,420
156, 420,421,422
157, 422,423,424
158, 424,425,426
159, 426,427, 32
*element,type=b32,elset=b_41
160,  19,428,429
161, 429,430,431
162, 431,432,433
163, 433,434, 20
*element,type=b32,elset=b_42
164,  19,435,436
165, 436,437,438
166, 438,439, 32
*element,type=b32,elset=b_43
167,  19,440,441
168, 441,442,443
169, 443,444,445
170, 445,446,447
171, 447,448, 33
*element,type=b32,elset=b_44
172,  20,449,450
173, 450,451,452
174, 452,453,454
175, 454,455, 21
*element,type=b32,elset=b_45
176,  20,456,457
177, 457,458,459
178, 459,460, 33
*element,type=b32,elset=b_46
179,  20,461,462
180, 462,463,464
181, 464,465,466
182, 466,467,468
183, 468,469, 34
*element,type=b32,elset=b_47
184,  21,470,471
185, 471,472,473
186, 473,474,475
187, 475,476, 22
*element,type=b32,elset=b_48
188,  21,477,478
189, 478,479,480
190, 480,481, 34
*element,type=b32,elset=b_49
191,  21,482,483
192, 483,484,485
193, 485,486,487
194, 487,488,489
195, 489,490, 35
*element,type=b32,elset=b_50
196,  22,498,499
197, 499,500,501
198, 501,502, 35
*element,type=b32,elset=b_51
199,  27,580,581
200, 581,582,583
201, 583,584,585
202, 585,586, 28
*element,type=b32,elset=b_52
203,  27,587,588
204, 588,589,590
205, 590,591, 40
*element,type=b32,elset=b_53
206,  27,592,593
207, 593,594,595
208, 595,596,597
209, 597,598,599
210, 599,600, 41
*element,type=b32,elset=b_54
211,  28,601,602
212, 602,603,604
213, 604,605,606
214, 606,607, 29
*element,type=b32,elset=b_55
215,  28,608,609
216, 609,610,611
217, 611,612, 41
*element,type=b32,elset=b_56
218,  28,613,614
219, 614,615,616
220, 616,617,618
221, 618,619,620
222, 620,621, 42
*element,type=b32,elset=b_57
223,  29,622,623
224, 623,624,625
225, 625,626,627
226, 627,628, 30
*element,type=b32,elset=b_58
227,  29,629,630
228, 630,631,632
229, 632,633, 42
*element,type=b32,elset=b_59
230,  29,634,635
231, 635,636,637
232, 637,638,639
233, 639,640,641
234, 641,642, 43
*element,type=b32,elset=b_60
235,  30,643,644
236, 644,645,646
237, 646,647,648
238, 648,649, 31
*element,type=b32,elset=b_61
239,  30,650,651
240, 651,652,653
241, 653,654, 43
*element,type=b32,elset=b_62
242,  30,655,656
243, 656,657,658
244, 658,659,660
245, 660,661,662
246, 662,663, 44
*element,type=b32,elset=b_63
247,  31,664,665
248, 665,666,667
249, 667,668,669
250, 669,670, 32
*element,type=b32,elset=b_64
251,  31,671,672
252, 672,673,674
253, 674,675, 44
*element,type=b32,elset=b_65
254,  31,676,677
255, 677,678,679
256, 679,680,681
257, 681,682,683
258, 683,684, 45
*element,type=b32,elset=b_66
259,  32,685,686
260, 686,687,688
261, 688,689,690
262, 690,691, 33
*element,type=b32,elset=b_67
263,  32,692,693
264, 693,694,695
265, 695,696, 45
*element,type=b32,elset=b_68
266,  32,697,698
267, 698,699,700
268, 700,701,702
269, 702,703,704
270, 704,705, 46
*element,type=b32,elset=b_69
271,  33,706,707
272, 707,708,709
273, 709,710,711
274, 711,712, 34
*element,type=b32,elset=b_70
275,  33,713,714
276, 714,715,716
277, 716,717, 46
*element,type=b32,elset=b_71
278,  33,718,719
279, 719,720,721
280, 721,722,723
281, 723,724,725
282, 725,726, 47
*element,type=b32,elset=b_72
283,  34,727,728
284, 728,729,730
285, 730,731,732
286, 732,733, 35
*element,type=b32,elset=b_73
287,  34,734,735
288, 735,736,737
289, 737,738, 47
*element,type=b32,elset=b_74
290,  34,739,740
291, 740,741,742
292, 742,743,744
293, 744,745,746
294, 746,747, 48
*element,type=b32,elset=b_75
295,  35,748,749
296, 749,750,751
297, 751,752,753
298, 753,754, 36
*element,type=b32,elset=b_76
299,  35,755,756
300, 756,757,758
301, 758,759, 48
*element,type=b32,elset=b_77
302,  35,760,761
303, 761,762,763
304, 763,764,765
305, 765,766,767
306, 767,768, 49
*element,type=b32,elset=b_78
307,  36,769,770
308, 770,771,772
309, 772,773,774
310, 774,775, 37
*element,type=b32,elset=b_79
311,  36,776,777
312, 777,778,779
313, 779,780, 49
*element,type=b32,elset=b_80
314,  36,781,782
315, 782,783,784
316, 784,785,786
317, 786,787,788
318, 788,789, 50
*element,type=b32,elset=b_81
319,  37,790,791
320, 791,792,793
321, 793,794,795
322, 795,796, 38
*element,type=b32,elset=b_82
323,  37,797,798
324, 798,799,800
325, 800,801, 50
*element,type=b32,elset=b_83
326,  37,802,803
327, 803,804,805
328, 805,806,807
329, 807,808,809
330, 809,810, 51
*element,type=b32,elset=b_84
331,  38,811,812
332, 812,813,814
333, 814,815,816
334, 816,817, 39
*element,type=b32,elset=b_85
335,  38,818,819
336, 819,820,821
337, 821,822, 51
*element,type=b32,elset=b_86
338,  38,823,824
339, 824,825,826
340, 826,827,828
341, 828,829,830
342, 830,831, 52
*element,type=b32,elset=b_87
343,  39,832,833
344, 833,834,835
345, 835,836, 52
*element,type=b32,elset=b_88
346,  40,837,838
347, 838,839,840
348, 840,841,842
349, 842,843, 41
*element,type=b32,elset=b_89
350,  40,844,845
351, 845,846,847
352, 847,848, 53
*element,type=b32,elset=b_90
353,  40,849,850
354, 850,851,852
355, 852,853,854
356, 854,855,856
357, 856,857, 54
*element,type=b32,elset=b_91
358,  41,858,859
359, 859,860,861
360, 861,862,863
361, 863,864, 42
*element,type=b32,elset=b_92
362,  41,865,866
363, 866,867,868
364, 868,869, 54
*element,type=b32,elset=b_93
365,  41,870,871
366, 871,872,873
367, 873,874,875
368, 875,876,877
369, 877,878, 55
*element,type=b32,elset=b_94
370,  42,879,880
371, 880,881,882
372, 882,883,884
373, 884,885, 43
*element,type=b32,elset=b_95
374,  42,886,887
375, 887,888,889
376, 889,890, 55
*element,type=b32,elset=b_96
377,  42,891,892
378, 892,893,894
379, 894,895,896
380, 896,897,898
381, 898,899, 56
*element,type=b32,elset=b_97
382,  43,900,901
383, 901,902,903
384, 903,904,905
385, 905,906, 44
*element,type=b32,elset=b_98
386,  43,907,908
387, 908,909,910
388, 910,911, 56
*element,type=b32,elset=b_99
389,  43,912,913
390, 913,914,915
391, 915,916,917
392, 917,918,919
393, 919,920, 57
*element,type=b32,elset=b_100
394,  44,921,922
395, 922,923,924
396, 924,925,926
397, 926,927, 45
*element,type=b32,elset=b_101
398,  44,928,929
399, 929,930,931
400, 931,932, 57
*element,type=b32,elset=b_102
401,  44,933,934
402, 934,935,936
403, 936,937,938
404, 938,939,940
405, 940,941, 58
*element,type=b32,elset=b_103
406,  45,942,943
407, 943,944,945
408, 945,946,947
409, 947,948, 46
*element,type=b32,elset=b_104
410,  45,949,950
411, 950,951,952
412, 952,953, 58
*element,type=b32,elset=b_105
413,  45,954,955
414, 955,956,957
415, 957,958,959
416, 959,960,961
417, 961,962, 59
*element,type=b32,elset=b_106
418,  46,963,964
419, 964,965,966
420, 966,967,968
421, 968,969, 47
*element,type=b32,elset=b_107
422,  46,970,971
423, 971,972,973
424, 973,974, 59
*element,type=b32,elset=b_108
425,  46,975,976
426, 976,977,978
427, 978,979,980
428, 980,981,982
429, 982,983, 60
*element,type=b32,elset=b_109
430,  47,984,985
431, 985,986,987
432, 987,988,989
433, 989,990, 48
*element,type=b32,elset=b_110
434,  47,996,997
435, 997,998,999
436,  999,1000,1001
437, 1001,1002,1003
438, 1003,1004,  61
*element,type=b32,elset=b_111
439,   48,1005,1006
440, 1006,1007,1008
441, 1008,1009,1010
442, 1010,1011,  49
*element,type=b32,elset=b_112
443,   48,1012,1013
444, 1013,1014,1015
445, 1015,1016,  61
*element,type=b32,elset=b_113
446,   48,1017,1018
447, 1018,1019,1020
448, 1020,1021,1022
449, 1022,1023,1024
450, 1024,1025,  62
*element,type=b32,elset=b_114
451,   49,1026,1027
452, 1027,1028,1029
453, 1029,1030,1031
454, 1031,1032,  50
*element,type=b32,elset=b_115
455,   49,1033,1034
456, 1034,1035,1036
457, 1036,1037,  62
*element,type=b32,elset=b_116
458,   49,1038,1039
459, 1039,1040,1041
460, 1041,1042,1043
461, 1043,1044,1045
462, 1045,1046,  63
*element,type=b32,elset=b_117
463,   50,1047,1048
464, 1048,1049,1050
465, 1050,1051,1052
466, 1052,1053,  51
*element,type=b32,elset=b_118
467,   50,1054,1055
468, 1055,1056,1057
469, 1057,1058,  63
*element,type=b32,elset=b_119
470,   50,1059,1060
471, 1060,1061,1062
472, 1062,1063,1064
473, 1064,1065,1066
474, 1066,1067,  64
*element,type=b32,elset=b_120
475,   51,1068,1069
476, 1069,1070,1071
477, 1071,1072,1073
478, 1073,1074,  52
*element,type=b32,elset=b_121
479,   51,1075,1076
480, 1076,1077,1078
481, 1078,1079,  64
*element,type=b32,elset=b_122
482,   51,1080,1081
483, 1081,1082,1083
484, 1083,1084,1085
485, 1085,1086,1087
486, 1087,1088,  65
*element,type=b32,elset=b_123
487,   52,1089,1090
488, 1090,1091,1092
489, 1092,1093,  65
*element,type=b32,elset=b_124
490,   53,1094,1095
491, 1095,1096,1097
492, 1097,1098,1099
493, 1099,1100,  54
*element,type=b32,elset=b_125
494,   54,1101,1102
495, 1102,1103,1104
496, 1104,1105,1106
497, 1106,1107,  55
*element,type=b32,elset=b_126
498,   55,1108,1109
499, 1109,1110,1111
500, 1111,1112,1113
501, 1113,1114,  56
*element,type=b32,elset=b_127
502,   56,1115,1116
503, 1116,1117,1118
504, 1118,1119,1120
505, 1120,1121,  57
*element,type=b32,elset=b_128
506,   57,1122,1123
507, 1123,1124,1125
508, 1125,1126,1127
509, 1127,1128,  58
*element,type=b32,elset=b_129
510,   58,1129,1130
511, 1130,1131,1132
512, 1132,1133,1134
513, 1134,1135,  59
*element,type=b32,elset=b_130
514,   59,1136,1137
515, 1137,1138,1139
516, 1139,1140,1141
517, 1141,1142,  60
*element,type=b32,elset=b_131
518,   60,1143,1144
519, 1144,1145,1146
520, 1146,1147,1148
521, 1148,1149,  61
*element,type=b32,elset=b_132
522,   61,1150,1151
523, 1151,1152,1153
524, 1153,1154,1155
525, 1155,1156,  62
*element,type=b32,elset=b_133
526,   62,1157,1158
527, 1158,1159,1160
528, 1160,1161,1162
529, 1162,1163,  63
*element,type=b32,elset=b_134
530,   63,1164,1165
531, 1165,1166,1167
532, 1167,1168,1169
533, 1169,1170,  64
*element,type=b32,elset=b_135
534,   64,1171,1172
535, 1172,1173,1174
536, 1174,1175,1176
537, 1176,1177,  65
*elset, elset=elall
b_1,
b_2,
b_3,
b_4,
b_5,
b_6,
b_7,
b_8,
b_9,
b_10,
b_11,
b_12,
b_13,
b_14,
b_15,
b_16,
b_17,
b_18,
b_19,
b_20,
** ... 115 like lines cut
*material, name=mesh_material
*elastic, type=iso
2980000000.0, 0.2
*beam section, elset=b_1,material=mesh_material, section=rect
0.008, 0.003313510249623173
0.d0,0.d0,1.d0
*beam section, elset=b_2,material=mesh_material, section=rect
0.008, 0.0029283843339617927
0.d0,0.d0,1.d0
*beam section, elset=b_3,material=mesh_material, section=rect
0.008, 0.0011869914221226464
0.d0,0.d0,1.d0
*beam section, elset=b_4,material=mesh_material, section=rect
0.008, 0.0007134307903934883
0.d0,0.d0,1.d0
*beam section, elset=b_5,material=mesh_material, section=rect
0.008, 0.002600890788064374
0.d0,0.d0,1.d0
*beam section, elset=b_6,material=mesh_material, section=rect
0.008, 0.0019656383115551086
0.d0,0.d0,1.d0
*beam section, elset=b_7,material=mesh_material, section=rect
0.008, 0.002689535709419468
0.d0,0.d0,1.d0
*beam section, elset=b_8,material=mesh_material, section=rect
0.008, 0.004457411921880017
0.d0,0.d0,1.d0
*beam section, elset=b_9,material=mesh_material, section=rect
0.008, 0.0019945393842544577
0.d0,0.d0,1.d0
*beam section, elset=b_10,material=mesh_material, section=rect
0.008, 0.00202894455483092
0.d0,0.d0,1.d0
*beam section, elset=b_11,material=mesh_material, section=rect
0.008, 0.00032156153457910174
0.d0,0.d0,1.d0
*beam section, elset=b_12,material=mesh_material, section=rect
0.008, 0.004630343605343464
0.d0,0.d0,1.d0
*beam section, elset=b_13,material=mesh_material, section=rect
0.008, 0.0015639427119787546
0.d0,0.d0,1.d0
*beam section, elset=b_14,material=mesh_material, section=rect
0.008, 0.0031117869271185413
0.d0,0.d0,1.d0
*beam section, elset=b_15,material=mesh_material, section=rect
0.008, 0.0006683019420229241
0.d0,0.d0,1.d0
*beam section, elset=b_16,material=mesh_material, section=rect
0.008, 0.00024873953846746955
0.d0,0.d0,1.d0
*beam section, elset=b_17,material=mesh_material, section=rect
0.008, 0.0006565074665748366
0.d0,0.d0,1.d0
*beam section, elset=b_18,material=mesh_material, section=rect
0.008, 0.0015627734130922505
0.d0,0.d0,1.d0
*beam section, elset=b_19,material=mesh_material, section=rect
0.008, 0.0007111673308001948
0.d0,0.d0,1.d0
*beam section, elset=b_20,material=mesh_material, section=rect
0.008, 0.0013226957395044653
0.d0,0.d0,1.d0
** ... 345 like lines cut
*boundary
1, 3,5
2, 3,5
3, 3,5
4, 3,5
5, 3,5
6, 3,5
7, 3,5
8, 3,5
9, 3,5
14, 3,5
15, 3,5
16, 3,5
17, 3,5
18, 3,5
19, 3,5
20, 3,5
21, 3,5
22, 3,5
27, 3,5
28, 3,5
** ... 976 like lines cut
*boundary
2, 2
2, 6
3, 2
3, 6
4, 2
4, 6
5, 2
5, 6
6, 2
6, 6
7, 2
7, 6
8, 2
8, 6
9, 2
9, 6
1, 2
1, 6
53, 1
53, 2
59, 1
59, 2
*step, nlgeom
*static
*cload
1, 1, -100.0
36, 2, 5.0
37, 2, 5.0
38, 2, 5.0
39, 2, 5.0
*el print, elset=elall
s
*node file, output=2d, nset=nall
u
*el file, elset=elall
s,noe
*end step