SUMMARY OF JOB INFORMATION
  STEP      INC     ATT  ITRS     TOT TIME     STEP TIME      INC TIME
     1          1     1U    5  0.000000E+00  0.000000E+00  0.100000E+01
     1          1     2U    5  0.000000E+00  0.000000E+00  0.250000E+00
     1          1     3     3  0.625000E-01  0.625000E-01  0.625000E-01
     1          2     1     3  0.125000E+00  0.125000E+00  0.625000E-01
     1          3     1U    6  0.125000E+00  0.125000E+00  0.937500E-01
     1          3     2U    4  0.125000E+00  0.125000E+00  0.234375E-01
     1          3     3     5  0.130859E+00  0.130859E+00  0.585938E-02
     1          4     1     3  0.136719E+00  0.136719E+00  0.585938E-02
     1          5     1     3  0.142578E+00  0.142578E+00  0.585938E-02
     1          6     1     3  0.151367E+00  0.151367E+00  0.878906E-02
     1          7     1     3  0.164551E+00  0.164551E+00  0.131836E-01
     1          8     1     3  0.184326E+00  0.184326E+00  0.197754E-01
     1          9     1     3  0.213989E+00  0.213989E+00  0.296631E-01
     1         10     1U   10  0.213989E+00  0.213989E+00  0.444946E-01
     1         10     2U    4  0.213989E+00  0.213989E+00  0.111237E-01
     1         10     3     2  0.216770E+00  0.216770E+00  0.278091E-02
     1         11     1     2  0.219551E+00  0.219551E+00  0.278091E-02
     1         12     1     3  0.223722E+00  0.223722E+00  0.417137E-02
     1         13     1     3  0.229980E+00  0.229980E+00  0.625706E-02
     1         14     1     6  0.239365E+00  0.239365E+00  0.938559E-02
     1         15     1     6  0.248751E+00  0.248751E+00  0.938559E-02
     1         16     1     3  0.258136E+00  0.258136E+00  0.938559E-02
     1         17     1     3  0.267522E+00  0.267522E+00  0.938559E-02
     1         18     1     3  0.281600E+00  0.281600E+00  0.140784E-01
     1         19     1     3  0.302718E+00  0.302718E+00  0.211176E-01
     1         20     1     4  0.334394E+00  0.334394E+00  0.316764E-01
     1         21     1     8  0.381909E+00  0.381909E+00  0.475145E-01
     1         22     1     3  0.429423E+00  0.429423E+00  0.475145E-01
     1         23     1     3  0.476938E+00  0.476938E+00  0.475145E-01
     1         24     1     3  0.548210E+00  0.548210E+00  0.712718E-01
     1         25     1     3  0.655117E+00  0.655117E+00  0.106908E+00
     1         26     1     3  0.815479E+00  0.815479E+00  0.160362E+00
     1         27     1     3  0.100000E+01  0.100000E+01  0.184521E+00
