SUMMARY OF JOB INFORMATION
  STEP      INC     ATT  ITRS     TOT TIME     STEP TIME      INC TIME
     1          1     1U    8  0.000000E+00  0.000000E+00  0.100000E+01
     1          1     2U    5  0.000000E+00  0.000000E+00  0.500000E+00
     1          1     3     2  0.125000E+00  0.125000E+00  0.125000E+00
     1          2     1     2  0.250000E+00  0.250000E+00  0.125000E+00
     1          3     1     3  0.437500E+00  0.437500E+00  0.187500E+00
     1          4     1U    4  0.437500E+00  0.437500E+00  0.281250E+00
     1          4     2U    4  0.437500E+00  0.437500E+00  0.703125E-01
     1          4     3     2  0.455078E+00  0.455078E+00  0.175781E-01
     1          5     1     4  0.472656E+00  0.472656E+00  0.175781E-01
     1          6     1     7  0.499023E+00  0.499023E+00  0.263672E-01
     1          7     1     4  0.525391E+00  0.525391E+00  0.263672E-01
     1          8     1     6  0.551758E+00  0.551758E+00  0.263672E-01
     1          9     1U    8  0.551758E+00  0.551758E+00  0.263672E-01
     1          9     2    12  0.564941E+00  0.564941E+00  0.131836E-01
     1         10     1     4  0.578125E+00  0.578125E+00  0.131836E-01
     1         11     1     5  0.591309E+00  0.591309E+00  0.131836E-01
     1         12     1     4  0.604492E+00  0.604492E+00  0.131836E-01
     1         13     1     4  0.617676E+00  0.617676E+00  0.131836E-01
     1         14     1     4  0.637451E+00  0.637451E+00  0.197754E-01
     1         15     1U    5  0.637451E+00  0.637451E+00  0.296631E-01
     1         15     2     5  0.644867E+00  0.644867E+00  0.741577E-02
     1         16     1U    9  0.644867E+00  0.644867E+00  0.741577E-02
     1         16     2     3  0.648575E+00  0.648575E+00  0.370789E-02
     1         17     1     5  0.652283E+00  0.652283E+00  0.370789E-02
     1         18     1     4  0.655991E+00  0.655991E+00  0.370789E-02
     1         19     1     5  0.659698E+00  0.659698E+00  0.370789E-02
     1         20     1U    4  0.659698E+00  0.659698E+00  0.370789E-02
     1         20     2     3  0.660625E+00  0.660625E+00  0.926971E-03
     1         21     1     3  0.661552E+00  0.661552E+00  0.926971E-03
     1         22     1     6  0.662943E+00  0.662943E+00  0.139046E-02
     1         23     1U    5  0.662943E+00  0.662943E+00  0.139046E-02
     1         23     2U    5  0.662943E+00  0.662943E+00  0.347614E-03
     1         23     3U    5  0.662943E+00  0.662943E+00  0.869036E-04
     1         23     4U    4  0.662943E+00  0.662943E+00  0.217259E-04
