SUMMARY OF JOB INFORMATION
  STEP      INC     ATT  ITRS     TOT TIME     STEP TIME      INC TIME
     1          1     1U   11  0.000000E+00  0.000000E+00  0.100000E+01
     1          1     2     5  0.250000E+00  0.250000E+00  0.250000E+00
     1          2     1     8  0.500000E+00  0.500000E+00  0.250000E+00
     1          3     1     6  0.750000E+00  0.750000E+00  0.250000E+00
     1          4     1U    4  0.750000E+00  0.750000E+00  0.250000E+00
     1          4     2     2  0.812500E+00  0.812500E+00  0.625000E-01
     1          5     1     3  0.875000E+00  0.875000E+00  0.625000E-01
     1          6     1     4  0.968750E+00  0.968750E+00  0.937500E-01
     1          7     1     3  0.100000E+01  0.100000E+01  0.312500E-01
