SUMMARY OF JOB INFORMATION
  STEP      INC     ATT  ITRS     TOT TIME     STEP TIME      INC TIME
     1          1     1U    5  0.000000E+00  0.000000E+00  0.100000E+01
     1          1     2     5  0.250000E+00  0.250000E+00  0.250000E+00
     1          2     1U    4  0.250000E+00  0.250000E+00  0.250000E+00
     1          2     2     6  0.312500E+00  0.312500E+00  0.625000E-01
     1          3     1U    5  0.312500E+00  0.312500E+00  0.625000E-01
     1          3     2     2  0.328125E+00  0.328125E+00  0.156250E-01
     1          4     1     2  0.343750E+00  0.343750E+00  0.156250E-01
     1          5     1     3  0.367188E+00  0.367188E+00  0.234375E-01
     1          6     1     3  0.402344E+00  0.402344E+00  0.351562E-01
     1          7     1     3  0.455078E+00  0.455078E+00  0.527344E-01
     1          8     1     3  0.534180E+00  0.534180E+00  0.791016E-01
     1          9     1     3  0.652832E+00  0.652832E+00  0.118652E+00
     1         10     1     3  0.830811E+00  0.830811E+00  0.177979E+00
     1         11     1U    6  0.830811E+00  0.830811E+00  0.169189E+00
     1         11     2     2  0.873108E+00  0.873108E+00  0.422974E-01
     1         12     1     3  0.915405E+00  0.915405E+00  0.422974E-01
     1         13     1     3  0.978851E+00  0.978851E+00  0.634460E-01
     1         14     1     3  0.100000E+01  0.100000E+01  0.211487E-01
