*node, nset=nall
1, 0.,0.
2, 0.01666667,0.        
3, 0.03333333,0.        
4, 0.05,0.  
5, 0.06666667,0.        
8, 0.     ,0.00625
9, 0.01666667,0.00625   
10, 0.03333333,0.00625   
11, 0.05   ,0.00625
12, 0.06666667,0.00625   
15, 0.    ,0.0125
16, 0.01666667,0.0125    
17, 0.03333333,0.0125    
18, 0.05  ,0.0125
19, 0.06666667,0.0125    
20, 0.08333333,0.0125    
21, 0.1   ,0.0125
23, 0.01666667,0.01875   
24, 0.03333333,0.01875   
25, 0.05   ,0.01875
** ... 573 like lines cut
*element,type=b32,elset=b_0
1,  1,36,37
2, 37,38,39
3, 39,40,41
4, 41,42,43
5, 43,44,45
6, 45,46,47
7, 47,48,49
8, 49,50, 2
*element,type=b32,elset=b_1
9,  1,51,52
10, 52,53,54
11, 54,55, 8
*element,type=b32,elset=b_2
12,  1,56,57
13, 57,58,59
14, 59,60,61
15, 61,62,63
16, 63,64,65
17, 65,66,67
18, 67,68,69
19, 69,70, 9
*element,type=b32,elset=b_3
20,  2,71,72
21, 72,73,74
22, 74,75,76
23, 76,77,78
24, 78,79,80
25, 80,81,82
26, 82,83,84
27, 84,85, 3
*element,type=b32,elset=b_4
28,  2,86,87
29, 87,88,89
30, 89,90, 9
*element,type=b32,elset=b_5
31,  2,91,92
32, 92,93,94
33, 94,95,96
34, 96,97,98
35,  98, 99,100
36, 100,101,102
37, 102,103,104
38, 104,105, 10
*element,type=b32,elset=b_6
39,   3,106,107
40, 107,108,109
41, 109,110,111
42, 111,112,113
43, 113,114,115
44, 115,116,117
45, 117,118,119
46, 119,120,  4
*element,type=b32,elset=b_7
47,   3,121,122
48, 122,123,124
49, 124,125, 10
*element,type=b32,elset=b_9
50,   4,141,142
51, 142,143,144
52, 144,145,146
53, 146,147,148
54, 148,149,150
55, 150,151,152
56, 152,153,154
57, 154,155,  5
*element,type=b32,elset=b_10
58,   4,156,157
59, 157,158,159
60, 159,160, 11
*element,type=b32,elset=b_11
61,   4,161,162
62, 162,163,164
63, 164,165,166
64, 166,167,168
65, 168,169,170
66, 170,171,172
67, 172,173,174
68, 174,175, 12
*element,type=b32,elset=b_13
69,   5,191,192
70, 192,193,194
71, 194,195, 12
*element,type=b32,elset=b_20
72,   8,266,267
73, 267,268,269
74, 269,270, 15
*element,type=b32,elset=b_21
75,   8,271,272
76, 272,273,274
77, 274,275,276
78, 276,277,278
79, 278,279,280
80, 280,281,282
81, 282,283,284
82, 284,285, 16
*element,type=b32,elset=b_22
83,   9,286,287
84, 287,288,289
85, 289,290,291
86, 291,292,293
87, 293,294,295
88, 295,296,297
89, 297,298,299
90, 299,300, 10
*element,type=b32,elset=b_23
91,   9,301,302
92, 302,303,304
93, 304,305, 16
*element,type=b32,elset=b_24
94,   9,306,307
95, 307,308,309
96, 309,310,311
97, 311,312,313
98, 313,314,315
99, 315,316,317
100, 317,318,319
101, 319,320, 17
*element,type=b32,elset=b_26
102,  10,336,337
103, 337,338,339
104, 339,340, 17
*element,type=b32,elset=b_28
105,  11,356,357
106, 357,358,359
107, 359,360,361
108, 361,362,363
109, 363,364,365
110, 365,366,367
111, 367,368,369
112, 369,370, 12
*element,type=b32,elset=b_32
113,  12,406,407
114, 407,408,409
115, 409,410, 19
*element,type=b32,elset=b_38
116,  15,466,467
117, 467,468,469
118, 469,470,471
119, 471,472,473
120, 473,474,475
121, 475,476,477
122, 477,478,479
123, 479,480, 16
*element,type=b32,elset=b_42
124,  16,516,517
125, 517,518,519
126, 519,520, 23
*element,type=b32,elset=b_43
127,  16,521,522
128, 522,523,524
129, 524,525,526
130, 526,527,528
131, 528,529,530
132, 530,531,532
133, 532,533,534
134, 534,535, 24
*element,type=b32,elset=b_44
135,  17,536,537
136, 537,538,539
137, 539,540,541
138, 541,542,543
139, 543,544,545
140, 545,546,547
141, 547,548,549
142, 549,550, 18
*element,type=b32,elset=b_45
143,  17,551,552
144, 552,553,554
145, 554,555, 24
*element,type=b32,elset=b_46
146,  17,556,557
147, 557,558,559
148, 559,560,561
149, 561,562,563
150, 563,564,565
151, 565,566,567
152, 567,568,569
153, 569,570, 25
*element,type=b32,elset=b_47
154,  18,571,572
155, 572,573,574
156, 574,575,576
157, 576,577,578
158, 578,579,580
159, 580,581,582
160, 582,583,584
161, 584,585, 19
*element,type=b32,elset=b_48
162,  18,586,587
163, 587,588,589
164, 589,590, 25
*element,type=b32,elset=b_49
165,  18,591,592
166, 592,593,594
167, 594,595,596
168, 596,597,598
169, 598,599,600
170, 600,601,602
171, 602,603,604
172, 604,605, 26
*element,type=b32,elset=b_50
173,  19,606,607
174, 607,608,609
175, 609,610,611
176, 611,612,613
177, 613,614,615
178, 615,616,617
179, 617,618,619
180, 619,620, 20
*element,type=b32,elset=b_51
181,  19,621,622
182, 622,623,624
183, 624,625, 26
*element,type=b32,elset=b_52
184,  19,626,627
185, 627,628,629
186, 629,630,631
187, 631,632,633
188, 633,634,635
189, 635,636,637
190, 637,638,639
191, 639,640, 27
*element,type=b32,elset=b_53
192,  20,641,642
193, 642,643,644
194, 644,645,646
195, 646,647,648
196, 648,649,650
197, 650,651,652
198, 652,653,654
199, 654,655, 21
*element,type=b32,elset=b_54
200,  20,656,657
201, 657,658,659
202, 659,660, 27
*element,type=b32,elset=b_55
203,  20,661,662
204, 662,663,664
205, 664,665,666
206, 666,667,668
207, 668,669,670
208, 670,671,672
209, 672,673,674
210, 674,675, 28
*element,type=b32,elset=b_56
211,  21,676,677
212, 677,678,679
213, 679,680, 28
*element,type=b32,elset=b_60
214,  23,716,717
215, 717,718,719
216, 719,720,721
217, 721,722,723
218, 723,724,725
219, 725,726,727
220, 727,728,729
221, 729,730, 24
*element,type=b32,elset=b_64
222,  24,766,767
223, 767,768,769
224, 769,770, 31
*element,type=b32,elset=b_65
225,  24,771,772
226, 772,773,774
227, 774,775,776
228, 776,777,778
229, 778,779,780
230, 780,781,782
231, 782,783,784
232, 784,785, 32
*element,type=b32,elset=b_66
233,  25,786,787
234, 787,788,789
235, 789,790,791
236, 791,792,793
237, 793,794,795
238, 795,796,797
239, 797,798,799
240, 799,800, 26
*element,type=b32,elset=b_67
241,  25,801,802
242, 802,803,804
243, 804,805, 32
*element,type=b32,elset=b_68
244,  25,806,807
245, 807,808,809
246, 809,810,811
247, 811,812,813
248, 813,814,815
249, 815,816,817
250, 817,818,819
251, 819,820, 33
*element,type=b32,elset=b_69
252,  26,821,822
253, 822,823,824
254, 824,825,826
255, 826,827,828
256, 828,829,830
257, 830,831,832
258, 832,833,834
259, 834,835, 27
*element,type=b32,elset=b_70
260,  26,836,837
261, 837,838,839
262, 839,840, 33
*element,type=b32,elset=b_71
263,  26,841,842
264, 842,843,844
265, 844,845,846
266, 846,847,848
267, 848,849,850
268, 850,851,852
269, 852,853,854
270, 854,855, 34
*element,type=b32,elset=b_72
271,  27,856,857
272, 857,858,859
273, 859,860,861
274, 861,862,863
275, 863,864,865
276, 865,866,867
277, 867,868,869
278, 869,870, 28
*element,type=b32,elset=b_73
279,  27,871,872
280, 872,873,874
281, 874,875, 34
*element,type=b32,elset=b_74
282,  27,876,877
283, 877,878,879
284, 879,880,881
285, 881,882,883
286, 883,884,885
287, 885,886,887
288, 887,888,889
289, 889,890, 35
*element,type=b32,elset=b_75
290,  28,891,892
291, 892,893,894
292, 894,895, 35
*element,type=b32,elset=b_80
293,  33,956,957
294, 957,958,959
295, 959,960,961
296, 961,962,963
297, 963,964,965
298, 965,966,967
299, 967,968,969
300, 969,970, 34
*element,type=b32,elset=b_81
301,  34,971,972
302, 972,973,974
303, 974,975,976
304, 976,977,978
305, 978,979,980
306, 980,981,982
307, 982,983,984
308, 984,985, 35
*elset, elset=elall
b_0,
b_1,
b_2,
b_3,
b_4,
b_5,
b_6,
b_7,
b_9,
b_10,
b_11,
b_13,
b_20,
b_21,
b_22,
b_23,
b_24,
b_26,
b_28,
b_32,
** ... 31 like lines cut
*material, name=mesh_material
*elastic, type=iso
2980000000.0, 0.2
*beam section, elset=b_0, material=mesh_material, section=rect
0.008, 0.00005000000000000000
0.d0,0.d0,1.d0
*beam section, elset=b_1, material=mesh_material, section=rect
0.008, 0.00444999999999999996
0.d0,0.d0,1.d0
*beam section, elset=b_2, material=mesh_material, section=rect
0.008, 0.00045000000000000004
0.d0,0.d0,1.d0
*beam section, elset=b_3, material=mesh_material, section=rect
0.008, 0.00005000000000000000
0.d0,0.d0,1.d0
*beam section, elset=b_4, material=mesh_material, section=rect
0.008, 0.00010000000000000000
0.d0,0.d0,1.d0
*beam section, elset=b_5, material=mesh_material, section=rect
0.008, 0.00005000000000000000
0.d0,0.d0,1.d0
*beam section, elset=b_6, material=mesh_material, section=rect
0.008, 0.00005000000000000000
0.d0,0.d0,1.d0
*beam section, elset=b_7, material=mesh_material, section=rect
0.008, 0.00110000000000000007
0.d0,0.d0,1.d0
*beam section, elset=b_9, material=mesh_material, section=rect
0.008, 0.00005000000000000000
0.d0,0.d0,1.d0
*beam section, elset=b_10, material=mesh_material, section=rect
0.008, 0.00005000000000000000
0.d0,0.d0,1.d0
*beam section, elset=b_11, material=mesh_material, section=rect
0.008, 0.00005000000000000000
0.d0,0.d0,1.d0
*beam section, elset=b_13, material=mesh_material, section=rect
0.008, 0.00500000000000000010
0.d0,0.d0,1.d0
*beam section, elset=b_20, material=mesh_material, section=rect
0.008, 0.00005000000000000000
0.d0,0.d0,1.d0
*beam section, elset=b_21, material=mesh_material, section=rect
0.008, 0.00090000000000000008
0.d0,0.d0,1.d0
*beam section, elset=b_22, material=mesh_material, section=rect
0.008, 0.00005000000000000000
0.d0,0.d0,1.d0
*beam section, elset=b_23, material=mesh_material, section=rect
0.008, 0.00300000000000000006
0.d0,0.d0,1.d0
*beam section, elset=b_24, material=mesh_material, section=rect
0.008, 0.00080000000000000004
0.d0,0.d0,1.d0
*beam section, elset=b_26, material=mesh_material, section=rect
0.008, 0.00100000000000000002
0.d0,0.d0,1.d0
*beam section, elset=b_28, material=mesh_material, section=rect
0.008, 0.00005000000000000000
0.d0,0.d0,1.d0
*beam section, elset=b_32, material=mesh_material, section=rect
0.008, 0.00500000000000000010
0.d0,0.d0,1.d0
** ... 93 like lines cut
*boundary
1, 3,5
2, 3,5
3, 3,5
4, 3,5
5, 3,5
8, 3,5
9, 3,5
10, 3,5
11, 3,5
12, 3,5
15, 3,5
16, 3,5
17, 3,5
18, 3,5
19, 3,5
20, 3,5
21, 3,5
23, 3,5
24, 3,5
25, 3,5
** ... 573 like lines cut
*boundary
2, 2
2, 6
3, 2
3, 6
4, 2
4, 6
5, 2
5, 6
1, 2
1, 6
29, 1
29, 2
32, 1
32, 2
*step, nlgeom
*static
*cload
1, 1, 100.0
20, 2, 5.0
21, 2, 5.0
*el print, elset=elall
s
*node file, output=2d, nset=nall
u
*el file, elset=elall
s,noe
*end step