SUMMARY OF JOB INFORMATION
  STEP      INC     ATT  ITRS     TOT TIME     STEP TIME      INC TIME
     1          1     1U    8  0.000000E+00  0.000000E+00  0.100000E+01
     1          1     2     3  0.250000E+00  0.250000E+00  0.250000E+00
     1          2     1U    4  0.250000E+00  0.250000E+00  0.250000E+00
     1          2     2     2  0.312500E+00  0.312500E+00  0.625000E-01
     1          3     1     2  0.375000E+00  0.375000E+00  0.625000E-01
     1          4     1     4  0.468750E+00  0.468750E+00  0.937500E-01
     1          5     1U    5  0.468750E+00  0.468750E+00  0.140625E+00
     1          5     2     5  0.503906E+00  0.503906E+00  0.351562E-01
     1          6     1     4  0.539062E+00  0.539062E+00  0.351562E-01
     1          7     1U    7  0.539062E+00  0.539062E+00  0.351562E-01
     1          7     2     4  0.547852E+00  0.547852E+00  0.878906E-02
     1          8     1     5  0.556641E+00  0.556641E+00  0.878906E-02
     1          9     1     5  0.565430E+00  0.565430E+00  0.878906E-02
     1         10     1     4  0.574219E+00  0.574219E+00  0.878906E-02
     1         11     1     4  0.583008E+00  0.583008E+00  0.878906E-02
     1         12     1     5  0.596191E+00  0.596191E+00  0.131836E-01
     1         13     1     4  0.609375E+00  0.609375E+00  0.131836E-01
     1         14     1     4  0.622559E+00  0.622559E+00  0.131836E-01
     1         15     1     5  0.642334E+00  0.642334E+00  0.197754E-01
     1         16     1U    6  0.642334E+00  0.642334E+00  0.197754E-01
     1         16     2     5  0.647278E+00  0.647278E+00  0.494385E-02
     1         17     1     7  0.652222E+00  0.652222E+00  0.494385E-02
     1         18     1     5  0.657166E+00  0.657166E+00  0.494385E-02
     1         19     1     6  0.662109E+00  0.662109E+00  0.494385E-02
     1         20     1U    9  0.662109E+00  0.662109E+00  0.494385E-02
     1         20     2U    9  0.662109E+00  0.662109E+00  0.247192E-02
     1         20     3     3  0.662727E+00  0.662727E+00  0.617981E-03
     1         21     1U    7  0.662727E+00  0.662727E+00  0.617981E-03
     1         21     2     2  0.662882E+00  0.662882E+00  0.154495E-03
     1         22     1     3  0.663036E+00  0.663036E+00  0.154495E-03
     1         23     1U    9  0.663036E+00  0.663036E+00  0.231743E-03
     1         23     2     3  0.663094E+00  0.663094E+00  0.579357E-04
     1         24     1     4  0.663152E+00  0.663152E+00  0.579357E-04
     1         25     1U    5  0.663152E+00  0.663152E+00  0.869036E-04
     1         25     2U    5  0.663152E+00  0.663152E+00  0.217259E-04
