*node, nset=nall
1, 0.,0.
2, 0.01666667,0.        
3, 0.03333333,0.        
5, 0.06666667,0.        
8, 0.     ,0.00625
9, 0.01666667,0.00625   
10, 0.03333333,0.00625   
11, 0.05   ,0.00625
12, 0.06666667,0.00625   
15, 0.    ,0.0125
16, 0.01666667,0.0125    
17, 0.03333333,0.0125    
18, 0.05  ,0.0125
19, 0.06666667,0.0125    
20, 0.08333333,0.0125    
21, 0.1   ,0.0125
23, 0.01666667,0.01875   
24, 0.03333333,0.01875   
25, 0.05   ,0.01875
26, 0.06666667,0.01875   
** ... 487 like lines cut
*element,type=b32,elset=b_0
1,  1,36,37
2, 37,38,39
3, 39,40,41
4, 41,42,43
5, 43,44,45
6, 45,46,47
7, 47,48,49
8, 49,50, 2
*element,type=b32,elset=b_1
9,  1,51,52
10, 52,53,54
11, 54,55, 8
*element,type=b32,elset=b_2
12,  1,56,57
13, 57,58,59
14, 59,60,61
15, 61,62,63
16, 63,64,65
17, 65,66,67
18, 67,68,69
19, 69,70, 9
*element,type=b32,elset=b_4
20,  2,86,87
21, 87,88,89
22, 89,90, 9
*element,type=b32,elset=b_7
23,   3,121,122
24, 122,123,124
25, 124,125, 10
*element,type=b32,elset=b_13
26,   5,191,192
27, 192,193,194
28, 194,195, 12
*element,type=b32,elset=b_19
29,   8,251,252
30, 252,253,254
31, 254,255,256
32, 256,257,258
33, 258,259,260
34, 260,261,262
35, 262,263,264
36, 264,265,  9
*element,type=b32,elset=b_20
37,   8,266,267
38, 267,268,269
39, 269,270, 15
*element,type=b32,elset=b_21
40,   8,271,272
41, 272,273,274
42, 274,275,276
43, 276,277,278
44, 278,279,280
45, 280,281,282
46, 282,283,284
47, 284,285, 16
*element,type=b32,elset=b_23
48,   9,301,302
49, 302,303,304
50, 304,305, 16
*element,type=b32,elset=b_24
51,   9,306,307
52, 307,308,309
53, 309,310,311
54, 311,312,313
55, 313,314,315
56, 315,316,317
57, 317,318,319
58, 319,320, 17
*element,type=b32,elset=b_26
59,  10,336,337
60, 337,338,339
61, 339,340, 17
*element,type=b32,elset=b_28
62,  11,356,357
63, 357,358,359
64, 359,360,361
65, 361,362,363
66, 363,364,365
67, 365,366,367
68, 367,368,369
69, 369,370, 12
*element,type=b32,elset=b_30
70,  11,376,377
71, 377,378,379
72, 379,380,381
73, 381,382,383
74, 383,384,385
75, 385,386,387
76, 387,388,389
77, 389,390, 19
*element,type=b32,elset=b_32
78,  12,406,407
79, 407,408,409
80, 409,410, 19
*element,type=b32,elset=b_41
81,  16,501,502
82, 502,503,504
83, 504,505,506
84, 506,507,508
85, 508,509,510
86, 510,511,512
87, 512,513,514
88, 514,515, 17
*element,type=b32,elset=b_43
89,  16,521,522
90, 522,523,524
91, 524,525,526
92, 526,527,528
93, 528,529,530
94, 530,531,532
95, 532,533,534
96, 534,535, 24
*element,type=b32,elset=b_44
97,  17,536,537
98, 537,538,539
99, 539,540,541
100, 541,542,543
101, 543,544,545
102, 545,546,547
103, 547,548,549
104, 549,550, 18
*element,type=b32,elset=b_45
105,  17,551,552
106, 552,553,554
107, 554,555, 24
*element,type=b32,elset=b_46
108,  17,556,557
109, 557,558,559
110, 559,560,561
111, 561,562,563
112, 563,564,565
113, 565,566,567
114, 567,568,569
115, 569,570, 25
*element,type=b32,elset=b_47
116,  18,571,572
117, 572,573,574
118, 574,575,576
119, 576,577,578
120, 578,579,580
121, 580,581,582
122, 582,583,584
123, 584,585, 19
*element,type=b32,elset=b_48
124,  18,586,587
125, 587,588,589
126, 589,590, 25
*element,type=b32,elset=b_49
127,  18,591,592
128, 592,593,594
129, 594,595,596
130, 596,597,598
131, 598,599,600
132, 600,601,602
133, 602,603,604
134, 604,605, 26
*element,type=b32,elset=b_50
135,  19,606,607
136, 607,608,609
137, 609,610,611
138, 611,612,613
139, 613,614,615
140, 615,616,617
141, 617,618,619
142, 619,620, 20
*element,type=b32,elset=b_51
143,  19,621,622
144, 622,623,624
145, 624,625, 26
*element,type=b32,elset=b_52
146,  19,626,627
147, 627,628,629
148, 629,630,631
149, 631,632,633
150, 633,634,635
151, 635,636,637
152, 637,638,639
153, 639,640, 27
*element,type=b32,elset=b_54
154,  20,656,657
155, 657,658,659
156, 659,660, 27
*element,type=b32,elset=b_55
157,  20,661,662
158, 662,663,664
159, 664,665,666
160, 666,667,668
161, 668,669,670
162, 670,671,672
163, 672,673,674
164, 674,675, 28
*element,type=b32,elset=b_56
165,  21,676,677
166, 677,678,679
167, 679,680, 28
*element,type=b32,elset=b_60
168,  23,716,717
169, 717,718,719
170, 719,720,721
171, 721,722,723
172, 723,724,725
173, 725,726,727
174, 727,728,729
175, 729,730, 24
*element,type=b32,elset=b_64
176,  24,766,767
177, 767,768,769
178, 769,770, 31
*element,type=b32,elset=b_65
179,  24,771,772
180, 772,773,774
181, 774,775,776
182, 776,777,778
183, 778,779,780
184, 780,781,782
185, 782,783,784
186, 784,785, 32
*element,type=b32,elset=b_66
187,  25,786,787
188, 787,788,789
189, 789,790,791
190, 791,792,793
191, 793,794,795
192, 795,796,797
193, 797,798,799
194, 799,800, 26
*element,type=b32,elset=b_67
195,  25,801,802
196, 802,803,804
197, 804,805, 32
*element,type=b32,elset=b_68
198,  25,806,807
199, 807,808,809
200, 809,810,811
201, 811,812,813
202, 813,814,815
203, 815,816,817
204, 817,818,819
205, 819,820, 33
*element,type=b32,elset=b_69
206,  26,821,822
207, 822,823,824
208, 824,825,826
209, 826,827,828
210, 828,829,830
211, 830,831,832
212, 832,833,834
213, 834,835, 27
*element,type=b32,elset=b_70
214,  26,836,837
215, 837,838,839
216, 839,840, 33
*element,type=b32,elset=b_71
217,  26,841,842
218, 842,843,844
219, 844,845,846
220, 846,847,848
221, 848,849,850
222, 850,851,852
223, 852,853,854
224, 854,855, 34
*element,type=b32,elset=b_72
225,  27,856,857
226, 857,858,859
227, 859,860,861
228, 861,862,863
229, 863,864,865
230, 865,866,867
231, 867,868,869
232, 869,870, 28
*element,type=b32,elset=b_73
233,  27,871,872
234, 872,873,874
235, 874,875, 34
*element,type=b32,elset=b_74
236,  27,876,877
237, 877,878,879
238, 879,880,881
239, 881,882,883
240, 883,884,885
241, 885,886,887
242, 887,888,889
243, 889,890, 35
*element,type=b32,elset=b_75
244,  28,891,892
245, 892,893,894
246, 894,895, 35
*element,type=b32,elset=b_80
247,  33,956,957
248, 957,958,959
249, 959,960,961
250, 961,962,963
251, 963,964,965
252, 965,966,967
253, 967,968,969
254, 969,970, 34
*element,type=b32,elset=b_81
255,  34,971,972
256, 972,973,974
257, 974,975,976
258, 976,977,978
259, 978,979,980
260, 980,981,982
261, 982,983,984
262, 984,985, 35
*elset, elset=elall
b_0,
b_1,
b_2,
b_4,
b_7,
b_13,
b_19,
b_20,
b_21,
b_23,
b_24,
b_26,
b_28,
b_30,
b_32,
b_41,
b_43,
b_44,
b_45,
b_46,
** ... 24 like lines cut
*material, name=mesh_material
*elastic, type=iso
2980000000.0, 0.2
*beam section, elset=b_0, material=mesh_material, section=rect
0.008, 0.00005000000000000000
0.d0,0.d0,1.d0
*beam section, elset=b_1, material=mesh_material, section=rect
0.008, 0.00459999999999999992
0.d0,0.d0,1.d0
*beam section, elset=b_2, material=mesh_material, section=rect
0.008, 0.00050000000000000001
0.d0,0.d0,1.d0
*beam section, elset=b_4, material=mesh_material, section=rect
0.008, 0.00005000000000000000
0.d0,0.d0,1.d0
*beam section, elset=b_7, material=mesh_material, section=rect
0.008, 0.00114999999999999998
0.d0,0.d0,1.d0
*beam section, elset=b_13, material=mesh_material, section=rect
0.008, 0.00500000000000000010
0.d0,0.d0,1.d0
*beam section, elset=b_19, material=mesh_material, section=rect
0.008, 0.00005000000000000000
0.d0,0.d0,1.d0
*beam section, elset=b_20, material=mesh_material, section=rect
0.008, 0.00005000000000000000
0.d0,0.d0,1.d0
*beam section, elset=b_21, material=mesh_material, section=rect
0.008, 0.00095000000000000000
0.d0,0.d0,1.d0
*beam section, elset=b_23, material=mesh_material, section=rect
0.008, 0.00315000000000000002
0.d0,0.d0,1.d0
*beam section, elset=b_24, material=mesh_material, section=rect
0.008, 0.00095000000000000000
0.d0,0.d0,1.d0
*beam section, elset=b_26, material=mesh_material, section=rect
0.008, 0.00095000000000000000
0.d0,0.d0,1.d0
*beam section, elset=b_28, material=mesh_material, section=rect
0.008, 0.00005000000000000000
0.d0,0.d0,1.d0
*beam section, elset=b_30, material=mesh_material, section=rect
0.008, 0.00005000000000000000
0.d0,0.d0,1.d0
*beam section, elset=b_32, material=mesh_material, section=rect
0.008, 0.00500000000000000010
0.d0,0.d0,1.d0
*beam section, elset=b_41, material=mesh_material, section=rect
0.008, 0.00005000000000000000
0.d0,0.d0,1.d0
*beam section, elset=b_43, material=mesh_material, section=rect
0.008, 0.00095000000000000000
0.d0,0.d0,1.d0
*beam section, elset=b_44, material=mesh_material, section=rect
0.008, 0.00085000000000000006
0.d0,0.d0,1.d0
*beam section, elset=b_45, material=mesh_material, section=rect
0.008, 0.00315000000000000002
0.d0,0.d0,1.d0
*beam section, elset=b_46, material=mesh_material, section=rect
0.008, 0.00315000000000000002
0.d0,0.d0,1.d0
** ... 72 like lines cut
*boundary
1, 3,5
2, 3,5
3, 3,5
5, 3,5
8, 3,5
9, 3,5
10, 3,5
11, 3,5
12, 3,5
15, 3,5
16, 3,5
17, 3,5
18, 3,5
19, 3,5
20, 3,5
21, 3,5
23, 3,5
24, 3,5
25, 3,5
26, 3,5
** ... 487 like lines cut
*boundary
2, 2
2, 6
3, 2
3, 6
4, 2
4, 6
5, 2
5, 6
1, 2
1, 6
29, 1
29, 2
32, 1
32, 2
*step, nlgeom
*static
*cload
1, 1, 100.0
20, 2, 5.0
21, 2, 5.0
*el print, elset=elall
s
*node file, output=2d, nset=nall
u
*el file, elset=elall
s,noe
*end step