SUMMARY OF JOB INFORMATION
  STEP      INC     ATT  ITRS     TOT TIME     STEP TIME      INC TIME
     1          1     1U    4  0.000000E+00  0.000000E+00  0.100000E+01
     1          1     2     3  0.250000E+00  0.250000E+00  0.250000E+00
     1          2     1U    4  0.250000E+00  0.250000E+00  0.250000E+00
     1          2     2     2  0.312500E+00  0.312500E+00  0.625000E-01
     1          3     1     2  0.375000E+00  0.375000E+00  0.625000E-01
     1          4     1     6  0.468750E+00  0.468750E+00  0.937500E-01
     1          5     1U   13  0.468750E+00  0.468750E+00  0.937500E-01
     1          5     2U    8  0.468750E+00  0.468750E+00  0.468750E-01
     1          5     3     5  0.480469E+00  0.480469E+00  0.117188E-01
     1          6     1     7  0.492188E+00  0.492188E+00  0.117188E-01
     1          7     1     5  0.503906E+00  0.503906E+00  0.117188E-01
     1          8     1U    8  0.503906E+00  0.503906E+00  0.117188E-01
     1          8     2     4  0.506836E+00  0.506836E+00  0.292969E-02
     1          9     1     3  0.509766E+00  0.509766E+00  0.292969E-02
     1         10     1     3  0.514160E+00  0.514160E+00  0.439453E-02
     1         11     1     3  0.520752E+00  0.520752E+00  0.659180E-02
     1         12     1     4  0.530640E+00  0.530640E+00  0.988770E-02
     1         13     1     4  0.545471E+00  0.545471E+00  0.148315E-01
     1         14     1     4  0.567719E+00  0.567719E+00  0.222473E-01
     1         15     1     5  0.601089E+00  0.601089E+00  0.333710E-01
     1         16     1U   10  0.601089E+00  0.601089E+00  0.333710E-01
     1         16     2U    4  0.601089E+00  0.601089E+00  0.834274E-02
     1         16     3     4  0.603175E+00  0.603175E+00  0.208569E-02
     1         17     1     2  0.605261E+00  0.605261E+00  0.208569E-02
     1         18     1     2  0.608389E+00  0.608389E+00  0.312853E-02
     1         19     1     2  0.613082E+00  0.613082E+00  0.469279E-02
     1         20     1     2  0.620121E+00  0.620121E+00  0.703919E-02
     1         21     1     2  0.630680E+00  0.630680E+00  0.105588E-01
     1         22     1     3  0.646518E+00  0.646518E+00  0.158382E-01
     1         23     1U   12  0.646518E+00  0.646518E+00  0.237573E-01
     1         23     2     2  0.652458E+00  0.652458E+00  0.593932E-02
     1         24     1     3  0.658397E+00  0.658397E+00  0.593932E-02
     1         25     1     4  0.667306E+00  0.667306E+00  0.890897E-02
     1         26     1U    5  0.667306E+00  0.667306E+00  0.133635E-01
     1         26     2U    7  0.667306E+00  0.667306E+00  0.334087E-02
     1         26     3     3  0.668141E+00  0.668141E+00  0.835216E-03
     1         27     1U    5  0.668141E+00  0.668141E+00  0.835216E-03
     1         27     2     3  0.668350E+00  0.668350E+00  0.208804E-03
     1         28     1     3  0.668559E+00  0.668559E+00  0.208804E-03
     1         29     1U    5  0.668559E+00  0.668559E+00  0.313206E-03
     1         29     2     3  0.668637E+00  0.668637E+00  0.783015E-04
     1         30     1     3  0.668715E+00  0.668715E+00  0.783015E-04
     1         31     1     4  0.668833E+00  0.668833E+00  0.117452E-03
     1         32     1U    5  0.668833E+00  0.668833E+00  0.176178E-03
     1         32     2U    7  0.668833E+00  0.668833E+00  0.440446E-04
     1         32     3     8  0.668844E+00  0.668844E+00  0.110112E-04
     1         33     1U    5  0.668844E+00  0.668844E+00  0.110112E-04
