SUMMARY OF JOB INFORMATION
  STEP      INC     ATT  ITRS     TOT TIME     STEP TIME      INC TIME
     1          1     1U    7  0.000000E+00  0.000000E+00  0.100000E+01
     1          1     2     3  0.250000E+00  0.250000E+00  0.250000E+00
     1          2     1U    4  0.250000E+00  0.250000E+00  0.250000E+00
     1          2     2     2  0.312500E+00  0.312500E+00  0.625000E-01
     1          3     1     2  0.375000E+00  0.375000E+00  0.625000E-01
     1          4     1     5  0.468750E+00  0.468750E+00  0.937500E-01
     1          5     1U    6  0.468750E+00  0.468750E+00  0.937500E-01
     1          5     2     4  0.492188E+00  0.492188E+00  0.234375E-01
     1          6     1     4  0.515625E+00  0.515625E+00  0.234375E-01
     1          7     1     5  0.550781E+00  0.550781E+00  0.351562E-01
     1          8     1    10  0.585938E+00  0.585938E+00  0.351562E-01
     1          9     1U    8  0.585938E+00  0.585938E+00  0.351562E-01
     1          9     2    10  0.603516E+00  0.603516E+00  0.175781E-01
     1         10     1     6  0.621094E+00  0.621094E+00  0.175781E-01
     1         11     1     4  0.638672E+00  0.638672E+00  0.175781E-01
     1         12     1     4  0.656250E+00  0.656250E+00  0.175781E-01
     1         13     1     4  0.682617E+00  0.682617E+00  0.263672E-01
     1         14     1     5  0.722168E+00  0.722168E+00  0.395508E-01
     1         15     1     8  0.761719E+00  0.761719E+00  0.395508E-01
     1         16     1     8  0.801270E+00  0.801270E+00  0.395508E-01
     1         17     1U    4  0.801270E+00  0.801270E+00  0.395508E-01
     1         17     2U    9  0.801270E+00  0.801270E+00  0.988770E-02
     1         17     3     3  0.803741E+00  0.803741E+00  0.247192E-02
     1         18     1     3  0.806213E+00  0.806213E+00  0.247192E-02
     1         19     1     5  0.809921E+00  0.809921E+00  0.370789E-02
     1         20     1U    5  0.809921E+00  0.809921E+00  0.370789E-02
     1         20     2     7  0.810848E+00  0.810848E+00  0.926971E-03
     1         21     1U    7  0.810848E+00  0.810848E+00  0.926971E-03
     1         21     2U    9  0.810848E+00  0.810848E+00  0.231743E-03
     1         21     3     5  0.810906E+00  0.810906E+00  0.579357E-04
     1         22     1U    5  0.810906E+00  0.810906E+00  0.579357E-04
     1         22     2U   11  0.810906E+00  0.810906E+00  0.144839E-04
