*node, nset=nall
1, 0.,0.
2, 0.01666667,0.        
3, 0.03333333,0.        
5, 0.06666667,0.        
8, 0.     ,0.00625
9, 0.01666667,0.00625   
10, 0.03333333,0.00625   
12, 0.06666667,0.00625   
15, 0.    ,0.0125
16, 0.01666667,0.0125    
17, 0.03333333,0.0125    
18, 0.05  ,0.0125
19, 0.06666667,0.0125    
20, 0.08333333,0.0125    
21, 0.1   ,0.0125
24, 0.03333333,0.01875   
25, 0.05   ,0.01875
26, 0.06666667,0.01875   
27, 0.08333333,0.01875   
28, 0.1    ,0.01875
** ... 389 like lines cut
*element,type=b32,elset=b_1
1,  1,51,52
2, 52,53,54
3, 54,55, 8
*element,type=b32,elset=b_2
4,  1,56,57
5, 57,58,59
6, 59,60,61
7, 61,62,63
8, 63,64,65
9, 65,66,67
10, 67,68,69
11, 69,70, 9
*element,type=b32,elset=b_4
12,  2,86,87
13, 87,88,89
14, 89,90, 9
*element,type=b32,elset=b_7
15,   3,121,122
16, 122,123,124
17, 124,125, 10
*element,type=b32,elset=b_13
18,   5,191,192
19, 192,193,194
20, 194,195, 12
*element,type=b32,elset=b_19
21,   8,251,252
22, 252,253,254
23, 254,255,256
24, 256,257,258
25, 258,259,260
26, 260,261,262
27, 262,263,264
28, 264,265,  9
*element,type=b32,elset=b_20
29,   8,266,267
30, 267,268,269
31, 269,270, 15
*element,type=b32,elset=b_21
32,   8,271,272
33, 272,273,274
34, 274,275,276
35, 276,277,278
36, 278,279,280
37, 280,281,282
38, 282,283,284
39, 284,285, 16
*element,type=b32,elset=b_23
40,   9,301,302
41, 302,303,304
42, 304,305, 16
*element,type=b32,elset=b_24
43,   9,306,307
44, 307,308,309
45, 309,310,311
46, 311,312,313
47, 313,314,315
48, 315,316,317
49, 317,318,319
50, 319,320, 17
*element,type=b32,elset=b_26
51,  10,336,337
52, 337,338,339
53, 339,340, 17
*element,type=b32,elset=b_32
54,  12,406,407
55, 407,408,409
56, 409,410, 19
*element,type=b32,elset=b_43
57,  16,521,522
58, 522,523,524
59, 524,525,526
60, 526,527,528
61, 528,529,530
62, 530,531,532
63, 532,533,534
64, 534,535, 24
*element,type=b32,elset=b_44
65,  17,536,537
66, 537,538,539
67, 539,540,541
68, 541,542,543
69, 543,544,545
70, 545,546,547
71, 547,548,549
72, 549,550, 18
*element,type=b32,elset=b_45
73,  17,551,552
74, 552,553,554
75, 554,555, 24
*element,type=b32,elset=b_46
76,  17,556,557
77, 557,558,559
78, 559,560,561
79, 561,562,563
80, 563,564,565
81, 565,566,567
82, 567,568,569
83, 569,570, 25
*element,type=b32,elset=b_47
84,  18,571,572
85, 572,573,574
86, 574,575,576
87, 576,577,578
88, 578,579,580
89, 580,581,582
90, 582,583,584
91, 584,585, 19
*element,type=b32,elset=b_48
92,  18,586,587
93, 587,588,589
94, 589,590, 25
*element,type=b32,elset=b_49
95,  18,591,592
96, 592,593,594
97, 594,595,596
98, 596,597,598
99, 598,599,600
100, 600,601,602
101, 602,603,604
102, 604,605, 26
*element,type=b32,elset=b_50
103,  19,606,607
104, 607,608,609
105, 609,610,611
106, 611,612,613
107, 613,614,615
108, 615,616,617
109, 617,618,619
110, 619,620, 20
*element,type=b32,elset=b_51
111,  19,621,622
112, 622,623,624
113, 624,625, 26
*element,type=b32,elset=b_52
114,  19,626,627
115, 627,628,629
116, 629,630,631
117, 631,632,633
118, 633,634,635
119, 635,636,637
120, 637,638,639
121, 639,640, 27
*element,type=b32,elset=b_54
122,  20,656,657
123, 657,658,659
124, 659,660, 27
*element,type=b32,elset=b_55
125,  20,661,662
126, 662,663,664
127, 664,665,666
128, 666,667,668
129, 668,669,670
130, 670,671,672
131, 672,673,674
132, 674,675, 28
*element,type=b32,elset=b_56
133,  21,676,677
134, 677,678,679
135, 679,680, 28
*element,type=b32,elset=b_65
136,  24,771,772
137, 772,773,774
138, 774,775,776
139, 776,777,778
140, 778,779,780
141, 780,781,782
142, 782,783,784
143, 784,785, 32
*element,type=b32,elset=b_66
144,  25,786,787
145, 787,788,789
146, 789,790,791
147, 791,792,793
148, 793,794,795
149, 795,796,797
150, 797,798,799
151, 799,800, 26
*element,type=b32,elset=b_67
152,  25,801,802
153, 802,803,804
154, 804,805, 32
*element,type=b32,elset=b_68
155,  25,806,807
156, 807,808,809
157, 809,810,811
158, 811,812,813
159, 813,814,815
160, 815,816,817
161, 817,818,819
162, 819,820, 33
*element,type=b32,elset=b_69
163,  26,821,822
164, 822,823,824
165, 824,825,826
166, 826,827,828
167, 828,829,830
168, 830,831,832
169, 832,833,834
170, 834,835, 27
*element,type=b32,elset=b_70
171,  26,836,837
172, 837,838,839
173, 839,840, 33
*element,type=b32,elset=b_72
174,  27,856,857
175, 857,858,859
176, 859,860,861
177, 861,862,863
178, 863,864,865
179, 865,866,867
180, 867,868,869
181, 869,870, 28
*element,type=b32,elset=b_73
182,  27,871,872
183, 872,873,874
184, 874,875, 34
*element,type=b32,elset=b_74
185,  27,876,877
186, 877,878,879
187, 879,880,881
188, 881,882,883
189, 883,884,885
190, 885,886,887
191, 887,888,889
192, 889,890, 35
*element,type=b32,elset=b_75
193,  28,891,892
194, 892,893,894
195, 894,895, 35
*element,type=b32,elset=b_80
196,  33,956,957
197, 957,958,959
198, 959,960,961
199, 961,962,963
200, 963,964,965
201, 965,966,967
202, 967,968,969
203, 969,970, 34
*element,type=b32,elset=b_81
204,  34,971,972
205, 972,973,974
206, 974,975,976
207, 976,977,978
208, 978,979,980
209, 980,981,982
210, 982,983,984
211, 984,985, 35
*elset, elset=elall
b_1,
b_2,
b_4,
b_7,
b_13,
b_19,
b_20,
b_21,
b_23,
b_24,
b_26,
b_32,
b_43,
b_44,
b_45,
b_46,
b_47,
b_48,
b_49,
b_50,
** ... 17 like lines cut
*material, name=mesh_material
*elastic, type=iso
2980000000.0, 0.2
*beam section, elset=b_1, material=mesh_material, section=rect
0.008, 0.00385000000000000012
0.d0,0.d0,1.d0
*beam section, elset=b_2, material=mesh_material, section=rect
0.008, 0.00060000000000000006
0.d0,0.d0,1.d0
*beam section, elset=b_4, material=mesh_material, section=rect
0.008, 0.00020000000000000001
0.d0,0.d0,1.d0
*beam section, elset=b_7, material=mesh_material, section=rect
0.008, 0.00130000000000000016
0.d0,0.d0,1.d0
*beam section, elset=b_13, material=mesh_material, section=rect
0.008, 0.00500000000000000010
0.d0,0.d0,1.d0
*beam section, elset=b_19, material=mesh_material, section=rect
0.008, 0.00020000000000000001
0.d0,0.d0,1.d0
*beam section, elset=b_20, material=mesh_material, section=rect
0.008, 0.00020000000000000001
0.d0,0.d0,1.d0
*beam section, elset=b_21, material=mesh_material, section=rect
0.008, 0.00100000000000000002
0.d0,0.d0,1.d0
*beam section, elset=b_23, material=mesh_material, section=rect
0.008, 0.00240000000000000022
0.d0,0.d0,1.d0
*beam section, elset=b_24, material=mesh_material, section=rect
0.008, 0.00045000000000000004
0.d0,0.d0,1.d0
*beam section, elset=b_26, material=mesh_material, section=rect
0.008, 0.00120000000000000011
0.d0,0.d0,1.d0
*beam section, elset=b_32, material=mesh_material, section=rect
0.008, 0.00500000000000000010
0.d0,0.d0,1.d0
*beam section, elset=b_43, material=mesh_material, section=rect
0.008, 0.00050000000000000001
0.d0,0.d0,1.d0
*beam section, elset=b_44, material=mesh_material, section=rect
0.008, 0.00010000000000000000
0.d0,0.d0,1.d0
*beam section, elset=b_45, material=mesh_material, section=rect
0.008, 0.00250000000000000005
0.d0,0.d0,1.d0
*beam section, elset=b_46, material=mesh_material, section=rect
0.008, 0.00285000000000000010
0.d0,0.d0,1.d0
*beam section, elset=b_47, material=mesh_material, section=rect
0.008, 0.00500000000000000010
0.d0,0.d0,1.d0
*beam section, elset=b_48, material=mesh_material, section=rect
0.008, 0.00500000000000000010
0.d0,0.d0,1.d0
*beam section, elset=b_49, material=mesh_material, section=rect
0.008, 0.00240000000000000022
0.d0,0.d0,1.d0
*beam section, elset=b_50, material=mesh_material, section=rect
0.008, 0.00425000000000000031
0.d0,0.d0,1.d0
** ... 51 like lines cut
*boundary
1, 3,5
2, 3,5
3, 3,5
5, 3,5
8, 3,5
9, 3,5
10, 3,5
12, 3,5
15, 3,5
16, 3,5
17, 3,5
18, 3,5
19, 3,5
20, 3,5
21, 3,5
24, 3,5
25, 3,5
26, 3,5
27, 3,5
28, 3,5
** ... 389 like lines cut
*boundary
2, 2
2, 6
3, 2
3, 6
4, 2
4, 6
5, 2
5, 6
1, 2
1, 6
29, 1
29, 2
32, 1
32, 2
*step, nlgeom
*static
*cload
1, 1, 100.0
20, 2, 5.0
21, 2, 5.0
*el print, elset=elall
s
*node file, output=2d, nset=nall
u
*el file, elset=elall
s,noe
*end step